Program Version,EnergyPlus, Version 8.3.0-6d97d074ea, YMD=2018.11.27 18:11
