Program Version,EnergyPlus, Version 8.3.0-6d97d074ea, YMD=2018.01.23 10:49
! This file shows details about the branches, nodes, and other
! elements of the flow connections.
! This file is intended for use in "debugging" potential problems
! that may also be detected by the program, but may be more easily
! identified by "eye".
! This file is also intended to support software which draws a
! schematic diagram of the HVAC system.
! ===============================================================
! #Nodes,<Number of Unique Nodes>
 #Nodes,124
! <Node>,<NodeNumber>,<Node Name>,<Node Fluid Type>,<# Times Node Referenced After Definition>
 Node,1,DOAS DEMAND SIDE INLET 1,Air,3
 Node,2,DOAS SUPPLY SIDE OUTLET 1,Air,10
 Node,3,DOAS ZONE SPLITTER OUTLET NODE SEOFF,Air,3
 Node,4,SEOFF FAN COIL UNIT SUPPLY INLET,Air,3
 Node,5,SWOFF FAN COIL UNIT SUPPLY INLET,Air,3
 Node,6,DOAS ZONE SPLITTER OUTLET NODE SWOFF,Air,3
 Node,7,LARGECONF COOLED BEAM SUPPLY INLET,Air,3
 Node,8,NEOFF COOLED BEAM SUPPLY INLET,Air,3
 Node,9,TEMPHWLOOP SUPPLY SIDE OUTLET,Water,5
 Node,10,TEMPCHWLOOP SUPPLY SIDE OUTLET,Water,5
 Node,11,DOAS SUPPLY SIDE INLET,Air,2
 Node,12,DOAS AHU EXTRACT FAN AIR OUTLET NODE,Air,4
 Node,13,DOAS AHU MIXED AIR OUTLET,Air,6
 Node,14,DOAS AHU SUPPLY FAN OUTLET,Air,5
 Node,15,DOAS AHU UNITARY COOLING COIL DX COOLING COIL AIR OUTLET NODE,Air,5
 Node,16,TEMPHWLOOP DEMAND SIDE INLET,Water,2
 Node,17,TEMPHWLOOP DEMAND SIDE INLET BRANCH PIPE OUTLET,Water,1
 Node,18,TEMPHWLOOP DEMAND SIDE BYPASS PIPE INLET NODE,Water,1
 Node,19,TEMPHWLOOP DEMAND SIDE BYPASS PIPE OUTLET NODE,Water,1
 Node,20,NEOFF MULLION HOT WATER INLET NODE,Water,1
 Node,21,NEOFF MULLION HOT WATER OUTLET NODE,Water,1
 Node,22,NEOFF MULLION COLD WATER INLET NODE,Water,1
 Node,23,NEOFF MULLION COLD WATER OUTLET NODE,Water,1
 Node,24,NWOFF MULLION HOT WATER INLET NODE,Water,1
 Node,25,NWOFF MULLION HOT WATER OUTLET NODE,Water,1
 Node,26,NWOFF MULLION COLD WATER INLET NODE,Water,1
 Node,27,NWOFF MULLION COLD WATER OUTLET NODE,Water,1
 Node,28,LARGECONF MULLION HOT WATER INLET NODE,Water,1
 Node,29,LARGECONF MULLION HOT WATER OUTLET NODE,Water,1
 Node,30,LARGECONF MULLION COLD WATER INLET NODE,Water,1
 Node,31,LARGECONF MULLION COLD WATER OUTLET NODE,Water,1
 Node,32,CENTRAL MULLION HOT WATER INLET NODE,Water,1
 Node,33,CENTRAL MULLION HOT WATER OUTLET NODE,Water,1
 Node,34,CENTRAL MULLION COLD WATER INLET NODE,Water,1
 Node,35,CENTRAL MULLION COLD WATER OUTLET NODE,Water,1
 Node,36,SEOFF MULLION HOT WATER INLET NODE,Water,1
 Node,37,SEOFF MULLION HOT WATER OUTLET NODE,Water,1
 Node,38,SEOFF MULLION COLD WATER INLET NODE,Water,1
 Node,39,SEOFF MULLION COLD WATER OUTLET NODE,Water,1
 Node,40,SWOFF MULLION HOT WATER INLET NODE,Water,1
 Node,41,SWOFF MULLION HOT WATER OUTLET NODE,Water,1
 Node,42,SWOFF MULLION COLD WATER INLET NODE,Water,1
 Node,43,SWOFF MULLION COLD WATER OUTLET NODE,Water,1
 Node,44,SEOFF FAN COIL UNIT HEATING COIL WATER INLET NODE,Water,1
 Node,45,SEOFF FAN COIL UNIT HEATING COIL WATER OUTLET NODE,Water,1
 Node,46,SWOFF FAN COIL UNIT HEATING COIL WATER INLET NODE,Water,1
 Node,47,SWOFF FAN COIL UNIT HEATING COIL WATER OUTLET NODE,Water,1
 Node,48,TEMPHWLOOP DEMAND SIDE OUTLET BRANCH PIPE INLET,Water,1
 Node,49,TEMPHWLOOP DEMAND SIDE OUTLET,Water,2
 Node,50,TEMPHWLOOP SUPPLY SIDE INLET,Water,2
 Node,51,TEMPHWLOOP SUPPLY PUMP WATER OUTLET NODE,Water,1
 Node,52,TEMPHWLOOP SUPPLY SIDE BYPASS PIPE INLET NODE,Water,1
 Node,53,TEMPHWLOOP SUPPLY SIDE BYPASS PIPE OUTLET NODE,Water,1
 Node,54,CMU DISTRICTHEATING WATER INLET NODE,Water,1
 Node,55,CMU DISTRICTHEATING WATER OUTLET NODE,Water,1
 Node,56,TEMPHWLOOP SUPPLY SIDE OUTLET BRANCH PIPE INLET,Water,1
 Node,57,TEMPCHWLOOP DEMAND SIDE INLET,Water,2
 Node,58,TEMPCHWLOOP DEMAND SIDE INLET BRANCH PIPE OUTLET,Water,1
 Node,59,TEMPCHWLOOP DEMAND SIDE BYPASS PIPE INLET NODE,Water,1
 Node,60,TEMPCHWLOOP DEMAND SIDE BYPASS PIPE OUTLET NODE,Water,1
 Node,61,NEOFF CHILLED CEILING CHW WATER INLET NODE,Water,1
 Node,62,NEOFF CHILLED CEILING CHW WATER OUTLET NODE,Water,1
 Node,63,NEOFF CHILLED CEILING HW WATER INLET NODE,Water,1
 Node,64,NEOFF CHILLED CEILING HW WATER OUTLET NODE,Water,1
 Node,65,NWOFF CHILLED CEILING CHW WATER INLET NODE,Water,1
 Node,66,NWOFF CHILLED CEILING CHW WATER OUTLET NODE,Water,1
 Node,67,NWOFF CHILLED CEILING HW WATER INLET NODE,Water,1
 Node,68,NWOFF CHILLED CEILING HW WATER OUTLET NODE,Water,1
 Node,69,LARGECONF COOLED BEAM CHW INLET NODE,Water,1
 Node,70,LARGECONF COOLED BEAM CHW OUTLET NODE,Water,1
 Node,71,NEOFF COOLED BEAM CHW INLET NODE,Water,1
 Node,72,NEOFF COOLED BEAM CHW OUTLET NODE,Water,1
 Node,73,SEOFF FAN COIL UNIT COOLING COIL WATER INLET NODE,Water,1
 Node,74,SEOFF FAN COIL UNIT COOLING COIL WATER OUTLET NODE,Water,1
 Node,75,SWOFF FAN COIL UNIT COOLING COIL WATER INLET NODE,Water,1
 Node,76,SWOFF FAN COIL UNIT COOLING COIL WATER OUTLET NODE,Water,1
 Node,77,CENTRAL CHILLED CEILING CHW WATER INLET NODE,Water,1
 Node,78,CENTRAL CHILLED CEILING CHW WATER OUTLET NODE,Water,1
 Node,79,CENTRAL CHILLED CEILING HW WATER INLET NODE,Water,1
 Node,80,CENTRAL CHILLED CEILING HW WATER OUTLET NODE,Water,1
 Node,81,TEMPCHWLOOP DEMAND SIDE OUTLET BRANCH PIPE INLET,Water,1
 Node,82,TEMPCHWLOOP DEMAND SIDE OUTLET,Water,2
 Node,83,TEMPCHWLOOP SUPPLY SIDE INLET,Water,2
 Node,84,TEMPCHWLOOP SUPPLY PUMP WATER OUTLET NODE,Water,1
 Node,85,TEMPCHWLOOP SUPPLY SIDE BYPASS PIPE INLET NODE,Water,1
 Node,86,TEMPCHWLOOP SUPPLY SIDE BYPASS PIPE OUTLET NODE,Water,1
 Node,87,CMU DISTRICTCOOLING CHW INLET NODE,Water,1
 Node,88,CMU DISTRICTCOOLING CHW OUTLET NODE,Water,1
 Node,89,TEMPCHWLOOP SUPPLY SIDE OUTLET BRANCH PIPE INLET,Water,1
 Node,90,DOAS DESICCANT REGEN OUTDOOR AIR INLET,Air,2
 Node,91,DOAS AHU OUTDOOR AIR INLET,Air,2
 Node,92,SEOFF FAN COIL UNIT OUTDOOR AIR NODE NAME,Air,1
 Node,93,SWOFF FAN COIL UNIT OUTDOOR AIR NODE NAME,Air,1
 Node,94,SEOFF ZONE AIR NODE,Air,0
 Node,95,DOAS ZONE MIXER INLET NODE SEOFF,Air,1
 Node,96,SEOFF FAN COIL UNIT RETURN,Air,2
 Node,97,SWOFF ZONE AIR NODE,Air,0
 Node,98,DOAS ZONE MIXER INLET NODE SWOFF,Air,1
 Node,99,SWOFF FAN COIL UNIT RETURN,Air,2
 Node,100,NEOFF ZONE AIR NODE,Air,0
 Node,101,DOAS ZONE MIXER INLET NODE NEOFF,Air,1
 Node,102,NWOFF ZONE AIR NODE,Air,0
 Node,103,NWOFF RETURN OUTLET,Air,0
 Node,104,LARGECONF ZONE AIR NODE,Air,0
 Node,105,DOAS ZONE MIXER INLET NODE LARGECONF,Air,1
 Node,106,CENTRAL ZONE AIR NODE,Air,0
 Node,107,CENTRAL RETURN OUTLET,Air,0
 Node,108,DOAS DEMAND SIDE OUTLET,Air,2
 Node,109,DOAS ZONE SPLITTER OUTLET NODE LARGECONF,Air,1
 Node,110,DOAS ZONE SPLITTER OUTLET NODE NEOFF,Air,1
 Node,111,DOAS AHU HEAT RECOVERY SUPPLY OUTLET,Air,1
 Node,112,DOAS AHU RELIEF AIR OUTLET,Air,2
 Node,113,SEOFF FAN COIL UNIT MIXED AIR OUTLET,Air,1
 Node,114,SEOFF FAN COIL UNIT AIR RELIEF NODE NAME,Air,0
 Node,115,SWOFF FAN COIL UNIT MIXED AIR OUTLET,Air,1
 Node,116,SWOFF FAN COIL UNIT AIR RELIEF NODE NAME,Air,0
 Node,117,SEOFF FAN COIL UNIT COOLING COIL OUTLET,Air,1
 Node,118,SWOFF FAN COIL UNIT COOLING COIL OUTLET,Air,1
 Node,119,SEOFF FAN COIL UNIT SUPPLY FAN OUTLET,Air,1
 Node,120,SWOFF FAN COIL UNIT SUPPLY FAN OUTLET,Air,1
 Node,121,DOAS DESICCANT REGEN WHEEL AIR OUTLET,Air,1
 Node,122,DOAS DESICCANT REGEN AIR RELIEF OUTLET,Air,1
 Node,123,DOAS AHU HEAT RECOVERY RELIEF OUTLET,Air,0
 Node,124,DOAS DESICCANT REGEN BURNER AIR OUTLET,Air,1
! ===============================================================
! Suspicious nodes have 0 references.  It is normal for some nodes, however.
! Listing nodes with 0 references (culled from previous list):
! <Suspicious Node>,<NodeNumber>,<Node Name>,<Node Fluid Type>,<# Times Node Referenced After Definition>
 Suspicious Node,94,SEOFF ZONE AIR NODE,Air,0
 Suspicious Node,97,SWOFF ZONE AIR NODE,Air,0
 Suspicious Node,100,NEOFF ZONE AIR NODE,Air,0
 Suspicious Node,102,NWOFF ZONE AIR NODE,Air,0
 Suspicious Node,103,NWOFF RETURN OUTLET,Air,0
 Suspicious Node,104,LARGECONF ZONE AIR NODE,Air,0
 Suspicious Node,106,CENTRAL ZONE AIR NODE,Air,0
 Suspicious Node,107,CENTRAL RETURN OUTLET,Air,0
 Suspicious Node,114,SEOFF FAN COIL UNIT AIR RELIEF NODE NAME,Air,0
 Suspicious Node,116,SWOFF FAN COIL UNIT AIR RELIEF NODE NAME,Air,0
 Suspicious Node,123,DOAS AHU HEAT RECOVERY RELIEF OUTLET,Air,0
! ===============================================================
! <#Branch Lists>,<Number of Branch Lists>
 #Branch Lists,5
! <Branch List>,<Branch List Count>,<Branch List Name>,<Loop Name>,<Loop Type>,<Number of Branches>
! <Branch>,<Branch Count>,<Branch Name>,<Loop Name>,<Loop Type>,<Branch Inlet Node Name>,<Branch Outlet Node Name>
 Branch List,1,DOAS BRANCHES,DOAS,Air,1
   Branch,1,DOAS AHU MAIN BRANCH,DOAS,Air,DOAS SUPPLY SIDE INLET,DOAS SUPPLY SIDE OUTLET 1
 Branch List,2,TEMPHWLOOP DEMAND SIDE BRANCHES,TEMPHWLOOP,Plant Demand,14
   Branch,1,TEMPHWLOOP DEMAND SIDE INLET BRANCH,TEMPHWLOOP,Plant Demand,TEMPHWLOOP DEMAND SIDE INLET,TEMPHWLOOP DEMAND SIDE INLET BRANCH PIPE OUTLET
   Branch,2,TEMPHWLOOP DEMAND SIDE BYPASS BRANCH,TEMPHWLOOP,Plant Demand,TEMPHWLOOP DEMAND SIDE BYPASS PIPE INLET NODE,TEMPHWLOOP DEMAND SIDE BYPASS PIPE OUTLET NODE
   Branch,3,NEOFF MULLION TEMPHWLOOP DEMAND SIDE BRANCH,TEMPHWLOOP,Plant Demand,NEOFF MULLION HOT WATER INLET NODE,NEOFF MULLION HOT WATER OUTLET NODE
   Branch,4,NWOFF MULLION TEMPHWLOOP DEMAND SIDE BRANCH,TEMPHWLOOP,Plant Demand,NWOFF MULLION HOT WATER INLET NODE,NWOFF MULLION HOT WATER OUTLET NODE
   Branch,5,LARGECONF MULLION TEMPHWLOOP DEMAND SIDE BRANCH,TEMPHWLOOP,Plant Demand,LARGECONF MULLION HOT WATER INLET NODE,LARGECONF MULLION HOT WATER OUTLET NODE
   Branch,6,CENTRAL MULLION TEMPHWLOOP DEMAND SIDE BRANCH,TEMPHWLOOP,Plant Demand,CENTRAL MULLION HOT WATER INLET NODE,CENTRAL MULLION HOT WATER OUTLET NODE
   Branch,7,SEOFF MULLION TEMPHWLOOP DEMAND SIDE BRANCH,TEMPHWLOOP,Plant Demand,SEOFF MULLION HOT WATER INLET NODE,SEOFF MULLION HOT WATER OUTLET NODE
   Branch,8,SWOFF MULLION TEMPHWLOOP DEMAND SIDE BRANCH,TEMPHWLOOP,Plant Demand,SWOFF MULLION HOT WATER INLET NODE,SWOFF MULLION HOT WATER OUTLET NODE
   Branch,9,SEOFF FAN COIL UNIT HEATING COIL TEMPHWLOOP DEMAND SIDE BRANCH,TEMPHWLOOP,Plant Demand,SEOFF FAN COIL UNIT HEATING COIL WATER INLET NODE,SEOFF FAN COIL UNIT HEATING COIL WATER OUTLET NODE
   Branch,10,SWOFF FAN COIL UNIT HEATING COIL TEMPHWLOOP DEMAND SIDE BRANCH,TEMPHWLOOP,Plant Demand,SWOFF FAN COIL UNIT HEATING COIL WATER INLET NODE,SWOFF FAN COIL UNIT HEATING COIL WATER OUTLET NODE
   Branch,11,NEOFF CHILLED CEILING TEMPHWLOOP DEMAND SIDE BRANCH,TEMPHWLOOP,Plant Demand,NEOFF CHILLED CEILING HW WATER INLET NODE,NEOFF CHILLED CEILING HW WATER OUTLET NODE
   Branch,12,NWOFF CHILLED CEILING TEMPHWLOOP DEMAND SIDE BRANCH,TEMPHWLOOP,Plant Demand,NWOFF CHILLED CEILING HW WATER INLET NODE,NWOFF CHILLED CEILING HW WATER OUTLET NODE
   Branch,13,CENTRAL CHILLED CEILING TEMPHWLOOP DEMAND SIDE BRANCH,TEMPHWLOOP,Plant Demand,CENTRAL CHILLED CEILING HW WATER INLET NODE,CENTRAL CHILLED CEILING HW WATER OUTLET NODE
   Branch,14,TEMPHWLOOP DEMAND SIDE OUTLET BRANCH,TEMPHWLOOP,Plant Demand,TEMPHWLOOP DEMAND SIDE OUTLET BRANCH PIPE INLET,TEMPHWLOOP DEMAND SIDE OUTLET
 Branch List,3,TEMPHWLOOP SUPPLY SIDE BRANCHES,TEMPHWLOOP,Plant Supply,4
   Branch,1,TEMPHWLOOP SUPPLY SIDE INLET BRANCH,TEMPHWLOOP,Plant Supply,TEMPHWLOOP SUPPLY SIDE INLET,TEMPHWLOOP SUPPLY PUMP WATER OUTLET NODE
   Branch,2,TEMPHWLOOP SUPPLY SIDE BYPASS BRANCH,TEMPHWLOOP,Plant Supply,TEMPHWLOOP SUPPLY SIDE BYPASS PIPE INLET NODE,TEMPHWLOOP SUPPLY SIDE BYPASS PIPE OUTLET NODE
   Branch,3,CMU DISTRICTHEATING TEMPHWLOOP SUPPLY SIDE BRANCH,TEMPHWLOOP,Plant Supply,CMU DISTRICTHEATING WATER INLET NODE,CMU DISTRICTHEATING WATER OUTLET NODE
   Branch,4,TEMPHWLOOP SUPPLY SIDE OUTLET BRANCH,TEMPHWLOOP,Plant Supply,TEMPHWLOOP SUPPLY SIDE OUTLET BRANCH PIPE INLET,TEMPHWLOOP SUPPLY SIDE OUTLET
 Branch List,4,TEMPCHWLOOP DEMAND SIDE BRANCHES,TEMPCHWLOOP,Plant Demand,16
   Branch,1,TEMPCHWLOOP DEMAND SIDE INLET BRANCH,TEMPCHWLOOP,Plant Demand,TEMPCHWLOOP DEMAND SIDE INLET,TEMPCHWLOOP DEMAND SIDE INLET BRANCH PIPE OUTLET
   Branch,2,TEMPCHWLOOP DEMAND SIDE BYPASS BRANCH,TEMPCHWLOOP,Plant Demand,TEMPCHWLOOP DEMAND SIDE BYPASS PIPE INLET NODE,TEMPCHWLOOP DEMAND SIDE BYPASS PIPE OUTLET NODE
   Branch,3,NEOFF CHILLED CEILING TEMPCHWLOOP DEMAND SIDE BRANCH,TEMPCHWLOOP,Plant Demand,NEOFF CHILLED CEILING CHW WATER INLET NODE,NEOFF CHILLED CEILING CHW WATER OUTLET NODE
   Branch,4,NWOFF CHILLED CEILING TEMPCHWLOOP DEMAND SIDE BRANCH,TEMPCHWLOOP,Plant Demand,NWOFF CHILLED CEILING CHW WATER INLET NODE,NWOFF CHILLED CEILING CHW WATER OUTLET NODE
   Branch,5,LARGECONF COOLED BEAM TEMPCHWLOOP DEMAND SIDE BRANCH,TEMPCHWLOOP,Plant Demand,LARGECONF COOLED BEAM CHW INLET NODE,LARGECONF COOLED BEAM CHW OUTLET NODE
   Branch,6,NEOFF COOLED BEAM TEMPCHWLOOP DEMAND SIDE BRANCH,TEMPCHWLOOP,Plant Demand,NEOFF COOLED BEAM CHW INLET NODE,NEOFF COOLED BEAM CHW OUTLET NODE
   Branch,7,SEOFF FAN COIL UNIT COOLING COIL TEMPCHWLOOP DEMAND SIDE BRANCH,TEMPCHWLOOP,Plant Demand,SEOFF FAN COIL UNIT COOLING COIL WATER INLET NODE,SEOFF FAN COIL UNIT COOLING COIL WATER OUTLET NODE
   Branch,8,SWOFF FAN COIL UNIT COOLING COIL TEMPCHWLOOP DEMAND SIDE BRANCH,TEMPCHWLOOP,Plant Demand,SWOFF FAN COIL UNIT COOLING COIL WATER INLET NODE,SWOFF FAN COIL UNIT COOLING COIL WATER OUTLET NODE
   Branch,9,CENTRAL CHILLED CEILING TEMPCHWLOOP DEMAND SIDE BRANCH,TEMPCHWLOOP,Plant Demand,CENTRAL CHILLED CEILING CHW WATER INLET NODE,CENTRAL CHILLED CEILING CHW WATER OUTLET NODE
   Branch,10,NEOFF MULLION TEMPCHWLOOP DEMAND SIDE BRANCH,TEMPCHWLOOP,Plant Demand,NEOFF MULLION COLD WATER INLET NODE,NEOFF MULLION COLD WATER OUTLET NODE
   Branch,11,NWOFF MULLION TEMPCHWLOOP DEMAND SIDE BRANCH,TEMPCHWLOOP,Plant Demand,NWOFF MULLION COLD WATER INLET NODE,NWOFF MULLION COLD WATER OUTLET NODE
   Branch,12,LARGECONF MULLION TEMPCHWLOOP DEMAND SIDE BRANCH,TEMPCHWLOOP,Plant Demand,LARGECONF MULLION COLD WATER INLET NODE,LARGECONF MULLION COLD WATER OUTLET NODE
   Branch,13,CENTRAL MULLION TEMPCHWLOOP DEMAND SIDE BRANCH,TEMPCHWLOOP,Plant Demand,CENTRAL MULLION COLD WATER INLET NODE,CENTRAL MULLION COLD WATER OUTLET NODE
   Branch,14,SEOFF MULLION TEMPCHWLOOP DEMAND SIDE BRANCH,TEMPCHWLOOP,Plant Demand,SEOFF MULLION COLD WATER INLET NODE,SEOFF MULLION COLD WATER OUTLET NODE
   Branch,15,SWOFF MULLION TEMPCHWLOOP DEMAND SIDE BRANCH,TEMPCHWLOOP,Plant Demand,SWOFF MULLION COLD WATER INLET NODE,SWOFF MULLION COLD WATER OUTLET NODE
   Branch,16,TEMPCHWLOOP DEMAND SIDE OUTLET BRANCH,TEMPCHWLOOP,Plant Demand,TEMPCHWLOOP DEMAND SIDE OUTLET BRANCH PIPE INLET,TEMPCHWLOOP DEMAND SIDE OUTLET
 Branch List,5,TEMPCHWLOOP SUPPLY SIDE BRANCHES,TEMPCHWLOOP,Plant Supply,4
   Branch,1,TEMPCHWLOOP SUPPLY SIDE INLET BRANCH,TEMPCHWLOOP,Plant Supply,TEMPCHWLOOP SUPPLY SIDE INLET,TEMPCHWLOOP SUPPLY PUMP WATER OUTLET NODE
   Branch,2,TEMPCHWLOOP SUPPLY SIDE BYPASS BRANCH,TEMPCHWLOOP,Plant Supply,TEMPCHWLOOP SUPPLY SIDE BYPASS PIPE INLET NODE,TEMPCHWLOOP SUPPLY SIDE BYPASS PIPE OUTLET NODE
   Branch,3,CMU DISTRICTCOOLING TEMPCHWLOOP SUPPLY SIDE BRANCH,TEMPCHWLOOP,Plant Supply,CMU DISTRICTCOOLING CHW INLET NODE,CMU DISTRICTCOOLING CHW OUTLET NODE
   Branch,4,TEMPCHWLOOP SUPPLY SIDE OUTLET BRANCH,TEMPCHWLOOP,Plant Supply,TEMPCHWLOOP SUPPLY SIDE OUTLET BRANCH PIPE INLET,TEMPCHWLOOP SUPPLY SIDE OUTLET
! ===============================================================
! <#Supply Air Paths>,<Number of Supply Air Paths>
 #Supply Air Paths,1
! <Supply Air Path>,<Supply Air Path Count>,<Supply Air Path Name>,<AirLoopHVAC Name>
! <#Components on Supply Air Path>,<Number of Components>
! <Supply Air Path Component>,<Component Count>,<Component Type>,<Component Name>,<AirLoopHVAC Name>
! <#Outlet Nodes on Supply Air Path Component>,<Number of Nodes>
! <Supply Air Path Component Nodes>,<Node Count>,<Component Type>,<Component Name>,<Inlet Node Name>,<Outlet Node Name>,<AirLoopHVAC Name>
 Supply Air Path,1,DOAS DEMAND SIDE SUPPLY PATH 1,DOAS
   #Components on Supply Air Path,1
   Supply Air Path Component,1,AIRLOOPHVAC:ZONESPLITTER,DOAS ZONE SPLITTER,DOAS
     #Outlet Nodes on Supply Air Path Component,4
     Supply Air Path Component Nodes,1,AIRLOOPHVAC:ZONESPLITTER,DOAS ZONE SPLITTER,DOAS DEMAND SIDE INLET 1,DOAS ZONE SPLITTER OUTLET NODE SEOFF,DOAS
     Supply Air Path Component Nodes,2,AIRLOOPHVAC:ZONESPLITTER,DOAS ZONE SPLITTER,DOAS DEMAND SIDE INLET 1,DOAS ZONE SPLITTER OUTLET NODE SWOFF,DOAS
     Supply Air Path Component Nodes,3,AIRLOOPHVAC:ZONESPLITTER,DOAS ZONE SPLITTER,DOAS DEMAND SIDE INLET 1,DOAS ZONE SPLITTER OUTLET NODE LARGECONF,DOAS
     Supply Air Path Component Nodes,4,AIRLOOPHVAC:ZONESPLITTER,DOAS ZONE SPLITTER,DOAS DEMAND SIDE INLET 1,DOAS ZONE SPLITTER OUTLET NODE NEOFF,DOAS
! <#Nodes on Supply Air Path>,<Number of Nodes>
! <Supply Air Path Node>,<Node Type>,<Node Count>,<Node Name>,<AirLoopHVAC Name>
#Nodes on Supply Air Path,5
   Supply Air Path Node,Inlet Node,1,DOAS DEMAND SIDE INLET 1,DOAS
   Supply Air Path Node,Outlet Node,2,DOAS ZONE SPLITTER OUTLET NODE SEOFF,DOAS
   Supply Air Path Node,Outlet Node,3,DOAS ZONE SPLITTER OUTLET NODE SWOFF,DOAS
   Supply Air Path Node,Outlet Node,4,DOAS ZONE SPLITTER OUTLET NODE LARGECONF,DOAS
   Supply Air Path Node,Outlet Node,5,DOAS ZONE SPLITTER OUTLET NODE NEOFF,DOAS
! ===============================================================
! <#Return Air Paths>,<Number of Return Air Paths>
 #Return Air Paths,1
! <Return Air Path>,<Return Air Path Count>,<Return Air Path Name>,<AirLoopHVAC Name>
! <#Components on Return Air Path>,<Number of Components>
! <Return Air Path Component>,<Component Count>,<Component Type>,<Component Name>,<AirLoopHVAC Name>
! <#Inlet Nodes on Return Air Path Component>,<Number of Nodes>
! <Return Air Path Component Nodes>,<Node Count>,<Component Type>,<Component Name>,<Inlet Node Name>,<Outlet Node Name>,<AirLoopHVAC Name>
 Return Air Path,1,DOAS DEMAND SIDE RETURN PATH,DOAS
   #Components on Return Air Path,1
   Return Air Path Component,1,AIRLOOPHVAC:ZONEMIXER,DOAS ZONE MIXER,DOAS
     #Inlet Nodes on Return Air Path Component,4
     Return Air Path Component Nodes,1,AIRLOOPHVAC:ZONEMIXER,DOAS ZONE MIXER,DOAS ZONE MIXER INLET NODE LARGECONF,DOAS DEMAND SIDE OUTLET,DOAS
     Return Air Path Component Nodes,2,AIRLOOPHVAC:ZONEMIXER,DOAS ZONE MIXER,DOAS ZONE MIXER INLET NODE NEOFF,DOAS DEMAND SIDE OUTLET,DOAS
     Return Air Path Component Nodes,3,AIRLOOPHVAC:ZONEMIXER,DOAS ZONE MIXER,DOAS ZONE MIXER INLET NODE SEOFF,DOAS DEMAND SIDE OUTLET,DOAS
     Return Air Path Component Nodes,4,AIRLOOPHVAC:ZONEMIXER,DOAS ZONE MIXER,DOAS ZONE MIXER INLET NODE SWOFF,DOAS DEMAND SIDE OUTLET,DOAS
! <#Nodes on Return Air Path>,<Number of Nodes>
! <Return Air Path Node>,<Node Type>,<Node Count>,<Node Name>,<AirLoopHVAC Name>
   #Nodes on Return Air Path,5
   Return Air Path Node,Outlet Node,1,DOAS DEMAND SIDE OUTLET,DOAS
   Return Air Path Node,Inlet Node,2,DOAS ZONE MIXER INLET NODE LARGECONF,DOAS
   Return Air Path Node,Inlet Node,3,DOAS ZONE MIXER INLET NODE NEOFF,DOAS
   Return Air Path Node,Inlet Node,4,DOAS ZONE MIXER INLET NODE SEOFF,DOAS
   Return Air Path Node,Inlet Node,5,DOAS ZONE MIXER INLET NODE SWOFF,DOAS
! ===============================================================
! #Outdoor Air Nodes,<Number of Outdoor Air Nodes>
 #Outdoor Air Nodes,4
! <Outdoor Air Node>,<NodeNumber>,<Node Name>
 Outdoor Air Node,90,DOAS DESICCANT REGEN OUTDOOR AIR INLET
 Outdoor Air Node,91,DOAS AHU OUTDOOR AIR INLET
 Outdoor Air Node,92,SEOFF FAN COIL UNIT OUTDOOR AIR NODE NAME
 Outdoor Air Node,93,SWOFF FAN COIL UNIT OUTDOOR AIR NODE NAME
! ===============================================================
! <#Component Sets>,<Number of Component Sets>
 #Component Sets,59
! <Component Set>,<Component Set Count>,<Parent Object Type>,<Parent Object Name>,<Component Type>,<Component Name>,<Inlet Node ID>,<Outlet Node ID>,<Description>
 Component Set,1,BRANCH,DOAS AHU MAIN BRANCH,FAN:CONSTANTVOLUME,DOAS AHU EXTRACT FAN,DOAS SUPPLY SIDE INLET,DOAS AHU EXTRACT FAN AIR OUTLET NODE,Air Nodes
 Component Set,2,BRANCH,DOAS AHU MAIN BRANCH,AIRLOOPHVAC:OUTDOORAIRSYSTEM,DOAS AHU  OUTSIDE AIR SYSTEM,DOAS AHU EXTRACT FAN AIR OUTLET NODE,DOAS AHU MIXED AIR OUTLET,Air Nodes
 Component Set,3,BRANCH,DOAS AHU MAIN BRANCH,FAN:CONSTANTVOLUME,DOAS AHU SUPPLY FAN,DOAS AHU MIXED AIR OUTLET,DOAS AHU SUPPLY FAN OUTLET,Air Nodes
 Component Set,4,BRANCH,DOAS AHU MAIN BRANCH,COILSYSTEM:COOLING:DX,DOAS AHU UNITARY COOLING COIL,DOAS AHU SUPPLY FAN OUTLET,DOAS AHU UNITARY COOLING COIL DX COOLING COIL AIR OUTLET NODE,Air Nodes
 Component Set,5,BRANCH,DOAS AHU MAIN BRANCH,DEHUMIDIFIER:DESICCANT:SYSTEM,DOAS AHU DESICCANT DEHUMIDIFIER,DOAS AHU UNITARY COOLING COIL DX COOLING COIL AIR OUTLET NODE,DOAS SUPPLY SIDE OUTLET 1,Process Air Nodes
 Component Set,6,BRANCH,TEMPHWLOOP DEMAND SIDE INLET BRANCH,PIPE:ADIABATIC,TEMPHWLOOP DEMAND SIDE INLET BRANCH PIPE,TEMPHWLOOP DEMAND SIDE INLET,TEMPHWLOOP DEMAND SIDE INLET BRANCH PIPE OUTLET,Pipe Nodes
 Component Set,7,BRANCH,TEMPHWLOOP DEMAND SIDE BYPASS BRANCH,PIPE:ADIABATIC,TEMPHWLOOP DEMAND SIDE BYPASS PIPE,TEMPHWLOOP DEMAND SIDE BYPASS PIPE INLET NODE,TEMPHWLOOP DEMAND SIDE BYPASS PIPE OUTLET NODE,Pipe Nodes
 Component Set,8,BRANCH,NEOFF MULLION TEMPHWLOOP DEMAND SIDE BRANCH,ZONEHVAC:LOWTEMPERATURERADIANT:CONSTANTFLOW,NEOFF MULLION,NEOFF MULLION HOT WATER INLET NODE,NEOFF MULLION HOT WATER OUTLET NODE,Hot Water Nodes
 Component Set,9,BRANCH,NEOFF MULLION TEMPCHWLOOP DEMAND SIDE BRANCH,ZONEHVAC:LOWTEMPERATURERADIANT:CONSTANTFLOW,NEOFF MULLION,NEOFF MULLION COLD WATER INLET NODE,NEOFF MULLION COLD WATER OUTLET NODE,Chilled Water Nodes
 Component Set,10,BRANCH,NWOFF MULLION TEMPHWLOOP DEMAND SIDE BRANCH,ZONEHVAC:LOWTEMPERATURERADIANT:CONSTANTFLOW,NWOFF MULLION,NWOFF MULLION HOT WATER INLET NODE,NWOFF MULLION HOT WATER OUTLET NODE,Hot Water Nodes
 Component Set,11,BRANCH,NWOFF MULLION TEMPCHWLOOP DEMAND SIDE BRANCH,ZONEHVAC:LOWTEMPERATURERADIANT:CONSTANTFLOW,NWOFF MULLION,NWOFF MULLION COLD WATER INLET NODE,NWOFF MULLION COLD WATER OUTLET NODE,Chilled Water Nodes
 Component Set,12,BRANCH,LARGECONF MULLION TEMPHWLOOP DEMAND SIDE BRANCH,ZONEHVAC:LOWTEMPERATURERADIANT:CONSTANTFLOW,LARGECONF MULLION,LARGECONF MULLION HOT WATER INLET NODE,LARGECONF MULLION HOT WATER OUTLET NODE,Hot Water Nodes
 Component Set,13,BRANCH,LARGECONF MULLION TEMPCHWLOOP DEMAND SIDE BRANCH,ZONEHVAC:LOWTEMPERATURERADIANT:CONSTANTFLOW,LARGECONF MULLION,LARGECONF MULLION COLD WATER INLET NODE,LARGECONF MULLION COLD WATER OUTLET NODE,Chilled Water Nodes
 Component Set,14,BRANCH,CENTRAL MULLION TEMPHWLOOP DEMAND SIDE BRANCH,ZONEHVAC:LOWTEMPERATURERADIANT:CONSTANTFLOW,CENTRAL MULLION,CENTRAL MULLION HOT WATER INLET NODE,CENTRAL MULLION HOT WATER OUTLET NODE,Hot Water Nodes
 Component Set,15,BRANCH,CENTRAL MULLION TEMPCHWLOOP DEMAND SIDE BRANCH,ZONEHVAC:LOWTEMPERATURERADIANT:CONSTANTFLOW,CENTRAL MULLION,CENTRAL MULLION COLD WATER INLET NODE,CENTRAL MULLION COLD WATER OUTLET NODE,Chilled Water Nodes
 Component Set,16,BRANCH,SEOFF MULLION TEMPHWLOOP DEMAND SIDE BRANCH,ZONEHVAC:LOWTEMPERATURERADIANT:CONSTANTFLOW,SEOFF MULLION,SEOFF MULLION HOT WATER INLET NODE,SEOFF MULLION HOT WATER OUTLET NODE,Hot Water Nodes
 Component Set,17,BRANCH,SEOFF MULLION TEMPCHWLOOP DEMAND SIDE BRANCH,ZONEHVAC:LOWTEMPERATURERADIANT:CONSTANTFLOW,SEOFF MULLION,SEOFF MULLION COLD WATER INLET NODE,SEOFF MULLION COLD WATER OUTLET NODE,Chilled Water Nodes
 Component Set,18,BRANCH,SWOFF MULLION TEMPHWLOOP DEMAND SIDE BRANCH,ZONEHVAC:LOWTEMPERATURERADIANT:CONSTANTFLOW,SWOFF MULLION,SWOFF MULLION HOT WATER INLET NODE,SWOFF MULLION HOT WATER OUTLET NODE,Hot Water Nodes
 Component Set,19,BRANCH,SWOFF MULLION TEMPCHWLOOP DEMAND SIDE BRANCH,ZONEHVAC:LOWTEMPERATURERADIANT:CONSTANTFLOW,SWOFF MULLION,SWOFF MULLION COLD WATER INLET NODE,SWOFF MULLION COLD WATER OUTLET NODE,Chilled Water Nodes
 Component Set,20,BRANCH,SEOFF FAN COIL UNIT HEATING COIL TEMPHWLOOP DEMAND SIDE BRANCH,COIL:HEATING:WATER,SEOFF FAN COIL UNIT HEATING COIL,SEOFF FAN COIL UNIT HEATING COIL WATER INLET NODE,SEOFF FAN COIL UNIT HEATING COIL WATER OUTLET NODE,Water Nodes
 Component Set,21,BRANCH,SWOFF FAN COIL UNIT HEATING COIL TEMPHWLOOP DEMAND SIDE BRANCH,COIL:HEATING:WATER,SWOFF FAN COIL UNIT HEATING COIL,SWOFF FAN COIL UNIT HEATING COIL WATER INLET NODE,SWOFF FAN COIL UNIT HEATING COIL WATER OUTLET NODE,Water Nodes
 Component Set,22,BRANCH,TEMPHWLOOP DEMAND SIDE OUTLET BRANCH,PIPE:ADIABATIC,TEMPHWLOOP DEMAND SIDE OUTLET BRANCH PIPE,TEMPHWLOOP DEMAND SIDE OUTLET BRANCH PIPE INLET,TEMPHWLOOP DEMAND SIDE OUTLET,Pipe Nodes
 Component Set,23,BRANCH,TEMPHWLOOP SUPPLY SIDE INLET BRANCH,PUMP:CONSTANTSPEED,TEMPHWLOOP SUPPLY PUMP,TEMPHWLOOP SUPPLY SIDE INLET,TEMPHWLOOP SUPPLY PUMP WATER OUTLET NODE,Water Nodes
 Component Set,24,BRANCH,TEMPHWLOOP SUPPLY SIDE BYPASS BRANCH,PIPE:ADIABATIC,TEMPHWLOOP SUPPLY SIDE BYPASS PIPE,TEMPHWLOOP SUPPLY SIDE BYPASS PIPE INLET NODE,TEMPHWLOOP SUPPLY SIDE BYPASS PIPE OUTLET NODE,Pipe Nodes
 Component Set,25,BRANCH,CMU DISTRICTHEATING TEMPHWLOOP SUPPLY SIDE BRANCH,DISTRICTHEATING,CMU DISTRICTHEATING,CMU DISTRICTHEATING WATER INLET NODE,CMU DISTRICTHEATING WATER OUTLET NODE,Hot Water Nodes
 Component Set,26,BRANCH,TEMPHWLOOP SUPPLY SIDE OUTLET BRANCH,PIPE:ADIABATIC,TEMPHWLOOP SUPPLY SIDE OUTLET BRANCH PIPE,TEMPHWLOOP SUPPLY SIDE OUTLET BRANCH PIPE INLET,TEMPHWLOOP SUPPLY SIDE OUTLET,Pipe Nodes
 Component Set,27,BRANCH,TEMPCHWLOOP DEMAND SIDE INLET BRANCH,PIPE:ADIABATIC,TEMPCHWLOOP DEMAND SIDE INLET BRANCH PIPE,TEMPCHWLOOP DEMAND SIDE INLET,TEMPCHWLOOP DEMAND SIDE INLET BRANCH PIPE OUTLET,Pipe Nodes
 Component Set,28,BRANCH,TEMPCHWLOOP DEMAND SIDE BYPASS BRANCH,PIPE:ADIABATIC,TEMPCHWLOOP DEMAND SIDE BYPASS PIPE,TEMPCHWLOOP DEMAND SIDE BYPASS PIPE INLET NODE,TEMPCHWLOOP DEMAND SIDE BYPASS PIPE OUTLET NODE,Pipe Nodes
 Component Set,29,BRANCH,NEOFF CHILLED CEILING TEMPCHWLOOP DEMAND SIDE BRANCH,ZONEHVAC:LOWTEMPERATURERADIANT:CONSTANTFLOW,NEOFF CHILLED CEILING,NEOFF CHILLED CEILING CHW WATER INLET NODE,NEOFF CHILLED CEILING CHW WATER OUTLET NODE,Chilled Water Nodes
 Component Set,30,BRANCH,NEOFF CHILLED CEILING TEMPHWLOOP DEMAND SIDE BRANCH,ZONEHVAC:LOWTEMPERATURERADIANT:CONSTANTFLOW,NEOFF CHILLED CEILING,NEOFF CHILLED CEILING HW WATER INLET NODE,NEOFF CHILLED CEILING HW WATER OUTLET NODE,Hot Water Nodes
 Component Set,31,BRANCH,NWOFF CHILLED CEILING TEMPCHWLOOP DEMAND SIDE BRANCH,ZONEHVAC:LOWTEMPERATURERADIANT:CONSTANTFLOW,NWOFF CHILLED CEILING,NWOFF CHILLED CEILING CHW WATER INLET NODE,NWOFF CHILLED CEILING CHW WATER OUTLET NODE,Chilled Water Nodes
 Component Set,32,BRANCH,NWOFF CHILLED CEILING TEMPHWLOOP DEMAND SIDE BRANCH,ZONEHVAC:LOWTEMPERATURERADIANT:CONSTANTFLOW,NWOFF CHILLED CEILING,NWOFF CHILLED CEILING HW WATER INLET NODE,NWOFF CHILLED CEILING HW WATER OUTLET NODE,Hot Water Nodes
 Component Set,33,BRANCH,LARGECONF COOLED BEAM TEMPCHWLOOP DEMAND SIDE BRANCH,AIRTERMINAL:SINGLEDUCT:CONSTANTVOLUME:COOLEDBEAM,LARGECONF COOLED BEAM,LARGECONF COOLED BEAM CHW INLET NODE,LARGECONF COOLED BEAM CHW OUTLET NODE,Water Nodes
 Component Set,34,BRANCH,NEOFF COOLED BEAM TEMPCHWLOOP DEMAND SIDE BRANCH,AIRTERMINAL:SINGLEDUCT:CONSTANTVOLUME:COOLEDBEAM,NEOFF COOLED BEAM,NEOFF COOLED BEAM CHW INLET NODE,NEOFF COOLED BEAM CHW OUTLET NODE,Water Nodes
 Component Set,35,BRANCH,SEOFF FAN COIL UNIT COOLING COIL TEMPCHWLOOP DEMAND SIDE BRANCH,COIL:COOLING:WATER,SEOFF FAN COIL UNIT COOLING COIL,SEOFF FAN COIL UNIT COOLING COIL WATER INLET NODE,SEOFF FAN COIL UNIT COOLING COIL WATER OUTLET NODE,Water Nodes
 Component Set,36,BRANCH,SWOFF FAN COIL UNIT COOLING COIL TEMPCHWLOOP DEMAND SIDE BRANCH,COIL:COOLING:WATER,SWOFF FAN COIL UNIT COOLING COIL,SWOFF FAN COIL UNIT COOLING COIL WATER INLET NODE,SWOFF FAN COIL UNIT COOLING COIL WATER OUTLET NODE,Water Nodes
 Component Set,37,BRANCH,CENTRAL CHILLED CEILING TEMPCHWLOOP DEMAND SIDE BRANCH,ZONEHVAC:LOWTEMPERATURERADIANT:CONSTANTFLOW,CENTRAL CHILLED CEILING,CENTRAL CHILLED CEILING CHW WATER INLET NODE,CENTRAL CHILLED CEILING CHW WATER OUTLET NODE,Chilled Water Nodes
 Component Set,38,BRANCH,CENTRAL CHILLED CEILING TEMPHWLOOP DEMAND SIDE BRANCH,ZONEHVAC:LOWTEMPERATURERADIANT:CONSTANTFLOW,CENTRAL CHILLED CEILING,CENTRAL CHILLED CEILING HW WATER INLET NODE,CENTRAL CHILLED CEILING HW WATER OUTLET NODE,Hot Water Nodes
 Component Set,39,BRANCH,TEMPCHWLOOP DEMAND SIDE OUTLET BRANCH,PIPE:ADIABATIC,TEMPCHWLOOP DEMAND SIDE OUTLET BRANCH PIPE,TEMPCHWLOOP DEMAND SIDE OUTLET BRANCH PIPE INLET,TEMPCHWLOOP DEMAND SIDE OUTLET,Pipe Nodes
 Component Set,40,BRANCH,TEMPCHWLOOP SUPPLY SIDE INLET BRANCH,PUMP:CONSTANTSPEED,TEMPCHWLOOP SUPPLY PUMP,TEMPCHWLOOP SUPPLY SIDE INLET,TEMPCHWLOOP SUPPLY PUMP WATER OUTLET NODE,Water Nodes
 Component Set,41,BRANCH,TEMPCHWLOOP SUPPLY SIDE BYPASS BRANCH,PIPE:ADIABATIC,TEMPCHWLOOP SUPPLY SIDE BYPASS PIPE,TEMPCHWLOOP SUPPLY SIDE BYPASS PIPE INLET NODE,TEMPCHWLOOP SUPPLY SIDE BYPASS PIPE OUTLET NODE,Pipe Nodes
 Component Set,42,BRANCH,CMU DISTRICTCOOLING TEMPCHWLOOP SUPPLY SIDE BRANCH,DISTRICTCOOLING,CMU DISTRICTCOOLING,CMU DISTRICTCOOLING CHW INLET NODE,CMU DISTRICTCOOLING CHW OUTLET NODE,Chilled Water Nodes
 Component Set,43,BRANCH,TEMPCHWLOOP SUPPLY SIDE OUTLET BRANCH,PIPE:ADIABATIC,TEMPCHWLOOP SUPPLY SIDE OUTLET BRANCH PIPE,TEMPCHWLOOP SUPPLY SIDE OUTLET BRANCH PIPE INLET,TEMPCHWLOOP SUPPLY SIDE OUTLET,Pipe Nodes
 Component Set,44,AIRLOOPHVAC:OUTDOORAIRSYSTEM,DOAS AHU  OUTSIDE AIR SYSTEM,OUTDOORAIR:MIXER,DOAS AHU  OUTDOOR AIR MIXER,DOAS AHU HEAT RECOVERY SUPPLY OUTLET,DOAS AHU MIXED AIR OUTLET,Air Nodes
 Component Set,45,ZONEHVAC:FOURPIPEFANCOIL,SEOFF FAN COIL UNIT,OUTDOORAIR:MIXER,SEOFF FAN COIL UNIT OUTDOOR AIR MIXER,SEOFF FAN COIL UNIT OUTDOOR AIR NODE NAME,SEOFF FAN COIL UNIT MIXED AIR OUTLET,Air Nodes
 Component Set,46,ZONEHVAC:FOURPIPEFANCOIL,SWOFF FAN COIL UNIT,OUTDOORAIR:MIXER,SWOFF FAN COIL UNIT OUTDOOR AIR MIXER,SWOFF FAN COIL UNIT OUTDOOR AIR NODE NAME,SWOFF FAN COIL UNIT MIXED AIR OUTLET,Air Nodes
 Component Set,47,ZONEHVAC:FOURPIPEFANCOIL,SEOFF FAN COIL UNIT,COIL:HEATING:WATER,SEOFF FAN COIL UNIT HEATING COIL,SEOFF FAN COIL UNIT COOLING COIL OUTLET,SEOFF FAN COIL UNIT SUPPLY INLET,Air Nodes
 Component Set,48,ZONEHVAC:FOURPIPEFANCOIL,SWOFF FAN COIL UNIT,COIL:HEATING:WATER,SWOFF FAN COIL UNIT HEATING COIL,SWOFF FAN COIL UNIT COOLING COIL OUTLET,SWOFF FAN COIL UNIT SUPPLY INLET,Air Nodes
 Component Set,49,ZONEHVAC:FOURPIPEFANCOIL,SEOFF FAN COIL UNIT,COIL:COOLING:WATER,SEOFF FAN COIL UNIT COOLING COIL,SEOFF FAN COIL UNIT SUPPLY FAN OUTLET,SEOFF FAN COIL UNIT COOLING COIL OUTLET,Air Nodes
 Component Set,50,ZONEHVAC:FOURPIPEFANCOIL,SWOFF FAN COIL UNIT,COIL:COOLING:WATER,SWOFF FAN COIL UNIT COOLING COIL,SWOFF FAN COIL UNIT SUPPLY FAN OUTLET,SWOFF FAN COIL UNIT COOLING COIL OUTLET,Air Nodes
 Component Set,51,DEHUMIDIFIER:DESICCANT:SYSTEM,DOAS AHU DESICCANT DEHUMIDIFIER,FAN:CONSTANTVOLUME,DESICCANT REGEN FAN,DOAS DESICCANT REGEN WHEEL AIR OUTLET,DOAS DESICCANT REGEN AIR RELIEF OUTLET,Air Nodes
 Component Set,52,ZONEHVAC:FOURPIPEFANCOIL,SEOFF FAN COIL UNIT,FAN:ONOFF,SEOFF FAN COIL UNIT SUPPLY FAN,SEOFF FAN COIL UNIT MIXED AIR OUTLET,SEOFF FAN COIL UNIT SUPPLY FAN OUTLET,Air Nodes
 Component Set,53,ZONEHVAC:FOURPIPEFANCOIL,SWOFF FAN COIL UNIT,FAN:ONOFF,SWOFF FAN COIL UNIT SUPPLY FAN,SWOFF FAN COIL UNIT MIXED AIR OUTLET,SWOFF FAN COIL UNIT SUPPLY FAN OUTLET,Air Nodes
 Component Set,54,ZONEHVAC:AIRDISTRIBUTIONUNIT,LARGECONF COOLED BEAM ADU,AIRTERMINAL:SINGLEDUCT:CONSTANTVOLUME:COOLEDBEAM,LARGECONF COOLED BEAM,DOAS ZONE SPLITTER OUTLET NODE LARGECONF,LARGECONF COOLED BEAM SUPPLY INLET,Air Nodes
 Component Set,55,ZONEHVAC:AIRDISTRIBUTIONUNIT,NEOFF COOLED BEAM ADU,AIRTERMINAL:SINGLEDUCT:CONSTANTVOLUME:COOLEDBEAM,NEOFF COOLED BEAM,DOAS ZONE SPLITTER OUTLET NODE NEOFF,NEOFF COOLED BEAM SUPPLY INLET,Air Nodes
 Component Set,56,AIRLOOPHVAC:OUTDOORAIRSYSTEM,DOAS AHU  OUTSIDE AIR SYSTEM,HEATEXCHANGER:AIRTOAIR:SENSIBLEANDLATENT,DOAS AHU  HEAT RECOVERY DEVICE,DOAS AHU OUTDOOR AIR INLET,DOAS AHU HEAT RECOVERY SUPPLY OUTLET,Process Air Nodes
 Component Set,57,DEHUMIDIFIER:DESICCANT:SYSTEM,DOAS AHU DESICCANT DEHUMIDIFIER,HEATEXCHANGER:DESICCANT:BALANCEDFLOW,DESICCANT HEAT EXCHANGER 1,DOAS AHU UNITARY COOLING COIL DX COOLING COIL AIR OUTLET NODE,DOAS SUPPLY SIDE OUTLET 1,Process Air Nodes
 Component Set,58,COILSYSTEM:COOLING:DX,DOAS AHU UNITARY COOLING COIL,COIL:COOLING:DX:SINGLESPEED,DOAS AHU UNITARY COOLING COIL DX COOLING COIL,DOAS AHU SUPPLY FAN OUTLET,DOAS AHU UNITARY COOLING COIL DX COOLING COIL AIR OUTLET NODE,Air Nodes
 Component Set,59,DEHUMIDIFIER:DESICCANT:SYSTEM,DOAS AHU DESICCANT DEHUMIDIFIER,COIL:HEATING:GAS,DOAS DESICCANT REGEN BURNER COIL,DOAS DESICCANT REGEN OUTDOOR AIR INLET,DOAS DESICCANT REGEN BURNER AIR OUTLET,Air Nodes
! ===============================================================
! <# Plant Loops>,<Number of Plant Loops>
 #Plant Loops,2
! <Plant Loop>,<Plant Loop Name>,<Loop Type>,<Inlet Node Name>,<Outlet Node Name>,<Branch List>,<Connector List>
! <Plant Loop Connector>,<Connector Type>,<Connector Name>,<Loop Name>,<Loop Type>,<Number of Inlets/Outlets>
! <Plant Loop Connector Branches>,<Connector Node Count>,<Connector Type>,<Connector Name>,<Inlet Branch>,<Outlet Branch>,<Loop Name>,<Loop Type>
! <Plant Loop Connector Nodes>,<Connector Node Count>,<Connector Type>,<Connector Name>,<Inlet Node>,<Outlet Node>,<Loop Name>,<Loop Type>
! <Plant Loop Supply Connection>,<Plant Loop Name>,<Supply Side Outlet Node Name>,<Demand Side Inlet Node Name>
! <Plant Loop Return Connection>,<Plant Loop Name>,<Demand Side Outlet Node Name>,<Supply Side Inlet Node Name>
 Plant Loop,TEMPHWLOOP,Demand,TEMPHWLOOP DEMAND SIDE INLET,TEMPHWLOOP DEMAND SIDE OUTLET,TEMPHWLOOP DEMAND SIDE BRANCHES,TEMPHWLOOP DEMAND SIDE CONNECTORS
   Plant Loop Connector,Splitter,TEMPHWLOOP DEMAND SPLITTER,TEMPHWLOOP,Demand,12
     Plant Loop Connector Branches,1,Splitter,TEMPHWLOOP DEMAND SPLITTER,TEMPHWLOOP DEMAND SIDE INLET BRANCH,TEMPHWLOOP DEMAND SIDE BYPASS BRANCH,TEMPHWLOOP,Demand
     Plant Loop Connector Nodes,   1,Splitter,TEMPHWLOOP DEMAND SPLITTER,TEMPHWLOOP DEMAND SIDE INLET BRANCH PIPE OUTLET,TEMPHWLOOP DEMAND SIDE BYPASS PIPE INLET NODE,TEMPHWLOOP,Demand
     Plant Loop Connector Branches,2,Splitter,TEMPHWLOOP DEMAND SPLITTER,TEMPHWLOOP DEMAND SIDE INLET BRANCH,NEOFF MULLION TEMPHWLOOP DEMAND SIDE BRANCH,TEMPHWLOOP,Demand
     Plant Loop Connector Nodes,   2,Splitter,TEMPHWLOOP DEMAND SPLITTER,TEMPHWLOOP DEMAND SIDE INLET BRANCH PIPE OUTLET,NEOFF MULLION HOT WATER INLET NODE,TEMPHWLOOP,Demand
     Plant Loop Connector Branches,3,Splitter,TEMPHWLOOP DEMAND SPLITTER,TEMPHWLOOP DEMAND SIDE INLET BRANCH,NWOFF MULLION TEMPHWLOOP DEMAND SIDE BRANCH,TEMPHWLOOP,Demand
     Plant Loop Connector Nodes,   3,Splitter,TEMPHWLOOP DEMAND SPLITTER,TEMPHWLOOP DEMAND SIDE INLET BRANCH PIPE OUTLET,NWOFF MULLION HOT WATER INLET NODE,TEMPHWLOOP,Demand
     Plant Loop Connector Branches,4,Splitter,TEMPHWLOOP DEMAND SPLITTER,TEMPHWLOOP DEMAND SIDE INLET BRANCH,LARGECONF MULLION TEMPHWLOOP DEMAND SIDE BRANCH,TEMPHWLOOP,Demand
     Plant Loop Connector Nodes,   4,Splitter,TEMPHWLOOP DEMAND SPLITTER,TEMPHWLOOP DEMAND SIDE INLET BRANCH PIPE OUTLET,LARGECONF MULLION HOT WATER INLET NODE,TEMPHWLOOP,Demand
     Plant Loop Connector Branches,5,Splitter,TEMPHWLOOP DEMAND SPLITTER,TEMPHWLOOP DEMAND SIDE INLET BRANCH,CENTRAL MULLION TEMPHWLOOP DEMAND SIDE BRANCH,TEMPHWLOOP,Demand
     Plant Loop Connector Nodes,   5,Splitter,TEMPHWLOOP DEMAND SPLITTER,TEMPHWLOOP DEMAND SIDE INLET BRANCH PIPE OUTLET,CENTRAL MULLION HOT WATER INLET NODE,TEMPHWLOOP,Demand
     Plant Loop Connector Branches,6,Splitter,TEMPHWLOOP DEMAND SPLITTER,TEMPHWLOOP DEMAND SIDE INLET BRANCH,SEOFF MULLION TEMPHWLOOP DEMAND SIDE BRANCH,TEMPHWLOOP,Demand
     Plant Loop Connector Nodes,   6,Splitter,TEMPHWLOOP DEMAND SPLITTER,TEMPHWLOOP DEMAND SIDE INLET BRANCH PIPE OUTLET,SEOFF MULLION HOT WATER INLET NODE,TEMPHWLOOP,Demand
     Plant Loop Connector Branches,7,Splitter,TEMPHWLOOP DEMAND SPLITTER,TEMPHWLOOP DEMAND SIDE INLET BRANCH,SWOFF MULLION TEMPHWLOOP DEMAND SIDE BRANCH,TEMPHWLOOP,Demand
     Plant Loop Connector Nodes,   7,Splitter,TEMPHWLOOP DEMAND SPLITTER,TEMPHWLOOP DEMAND SIDE INLET BRANCH PIPE OUTLET,SWOFF MULLION HOT WATER INLET NODE,TEMPHWLOOP,Demand
     Plant Loop Connector Branches,8,Splitter,TEMPHWLOOP DEMAND SPLITTER,TEMPHWLOOP DEMAND SIDE INLET BRANCH,SEOFF FAN COIL UNIT HEATING COIL TEMPHWLOOP DEMAND SIDE BRANCH,TEMPHWLOOP,Demand
     Plant Loop Connector Nodes,   8,Splitter,TEMPHWLOOP DEMAND SPLITTER,TEMPHWLOOP DEMAND SIDE INLET BRANCH PIPE OUTLET,SEOFF FAN COIL UNIT HEATING COIL WATER INLET NODE,TEMPHWLOOP,Demand
     Plant Loop Connector Branches,9,Splitter,TEMPHWLOOP DEMAND SPLITTER,TEMPHWLOOP DEMAND SIDE INLET BRANCH,SWOFF FAN COIL UNIT HEATING COIL TEMPHWLOOP DEMAND SIDE BRANCH,TEMPHWLOOP,Demand
     Plant Loop Connector Nodes,   9,Splitter,TEMPHWLOOP DEMAND SPLITTER,TEMPHWLOOP DEMAND SIDE INLET BRANCH PIPE OUTLET,SWOFF FAN COIL UNIT HEATING COIL WATER INLET NODE,TEMPHWLOOP,Demand
     Plant Loop Connector Branches,10,Splitter,TEMPHWLOOP DEMAND SPLITTER,TEMPHWLOOP DEMAND SIDE INLET BRANCH,NEOFF CHILLED CEILING TEMPHWLOOP DEMAND SIDE BRANCH,TEMPHWLOOP,Demand
     Plant Loop Connector Nodes,   10,Splitter,TEMPHWLOOP DEMAND SPLITTER,TEMPHWLOOP DEMAND SIDE INLET BRANCH PIPE OUTLET,NEOFF CHILLED CEILING HW WATER INLET NODE,TEMPHWLOOP,Demand
     Plant Loop Connector Branches,11,Splitter,TEMPHWLOOP DEMAND SPLITTER,TEMPHWLOOP DEMAND SIDE INLET BRANCH,NWOFF CHILLED CEILING TEMPHWLOOP DEMAND SIDE BRANCH,TEMPHWLOOP,Demand
     Plant Loop Connector Nodes,   11,Splitter,TEMPHWLOOP DEMAND SPLITTER,TEMPHWLOOP DEMAND SIDE INLET BRANCH PIPE OUTLET,NWOFF CHILLED CEILING HW WATER INLET NODE,TEMPHWLOOP,Demand
     Plant Loop Connector Branches,12,Splitter,TEMPHWLOOP DEMAND SPLITTER,TEMPHWLOOP DEMAND SIDE INLET BRANCH,CENTRAL CHILLED CEILING TEMPHWLOOP DEMAND SIDE BRANCH,TEMPHWLOOP,Demand
     Plant Loop Connector Nodes,   12,Splitter,TEMPHWLOOP DEMAND SPLITTER,TEMPHWLOOP DEMAND SIDE INLET BRANCH PIPE OUTLET,CENTRAL CHILLED CEILING HW WATER INLET NODE,TEMPHWLOOP,Demand
   Plant Loop Connector,Mixer,TEMPHWLOOP DEMAND MIXER,TEMPHWLOOP,Demand,12
     Plant Loop Connector Branches,1,Mixer,TEMPHWLOOP DEMAND MIXER,LARGECONF MULLION TEMPHWLOOP DEMAND SIDE BRANCH,TEMPHWLOOP DEMAND SIDE OUTLET BRANCH,TEMPHWLOOP,Demand
     Plant Loop Connector Nodes,   1,Mixer,TEMPHWLOOP DEMAND MIXER,LARGECONF MULLION HOT WATER OUTLET NODE,TEMPHWLOOP DEMAND SIDE OUTLET BRANCH PIPE INLET,TEMPHWLOOP,Demand
     Plant Loop Connector Branches,2,Mixer,TEMPHWLOOP DEMAND MIXER,NEOFF MULLION TEMPHWLOOP DEMAND SIDE BRANCH,TEMPHWLOOP DEMAND SIDE OUTLET BRANCH,TEMPHWLOOP,Demand
     Plant Loop Connector Nodes,   2,Mixer,TEMPHWLOOP DEMAND MIXER,NEOFF MULLION HOT WATER OUTLET NODE,TEMPHWLOOP DEMAND SIDE OUTLET BRANCH PIPE INLET,TEMPHWLOOP,Demand
     Plant Loop Connector Branches,3,Mixer,TEMPHWLOOP DEMAND MIXER,TEMPHWLOOP DEMAND SIDE BYPASS BRANCH,TEMPHWLOOP DEMAND SIDE OUTLET BRANCH,TEMPHWLOOP,Demand
     Plant Loop Connector Nodes,   3,Mixer,TEMPHWLOOP DEMAND MIXER,TEMPHWLOOP DEMAND SIDE BYPASS PIPE OUTLET NODE,TEMPHWLOOP DEMAND SIDE OUTLET BRANCH PIPE INLET,TEMPHWLOOP,Demand
     Plant Loop Connector Branches,4,Mixer,TEMPHWLOOP DEMAND MIXER,NWOFF MULLION TEMPHWLOOP DEMAND SIDE BRANCH,TEMPHWLOOP DEMAND SIDE OUTLET BRANCH,TEMPHWLOOP,Demand
     Plant Loop Connector Nodes,   4,Mixer,TEMPHWLOOP DEMAND MIXER,NWOFF MULLION HOT WATER OUTLET NODE,TEMPHWLOOP DEMAND SIDE OUTLET BRANCH PIPE INLET,TEMPHWLOOP,Demand
     Plant Loop Connector Branches,5,Mixer,TEMPHWLOOP DEMAND MIXER,CENTRAL MULLION TEMPHWLOOP DEMAND SIDE BRANCH,TEMPHWLOOP DEMAND SIDE OUTLET BRANCH,TEMPHWLOOP,Demand
     Plant Loop Connector Nodes,   5,Mixer,TEMPHWLOOP DEMAND MIXER,CENTRAL MULLION HOT WATER OUTLET NODE,TEMPHWLOOP DEMAND SIDE OUTLET BRANCH PIPE INLET,TEMPHWLOOP,Demand
     Plant Loop Connector Branches,6,Mixer,TEMPHWLOOP DEMAND MIXER,SEOFF MULLION TEMPHWLOOP DEMAND SIDE BRANCH,TEMPHWLOOP DEMAND SIDE OUTLET BRANCH,TEMPHWLOOP,Demand
     Plant Loop Connector Nodes,   6,Mixer,TEMPHWLOOP DEMAND MIXER,SEOFF MULLION HOT WATER OUTLET NODE,TEMPHWLOOP DEMAND SIDE OUTLET BRANCH PIPE INLET,TEMPHWLOOP,Demand
     Plant Loop Connector Branches,7,Mixer,TEMPHWLOOP DEMAND MIXER,SWOFF MULLION TEMPHWLOOP DEMAND SIDE BRANCH,TEMPHWLOOP DEMAND SIDE OUTLET BRANCH,TEMPHWLOOP,Demand
     Plant Loop Connector Nodes,   7,Mixer,TEMPHWLOOP DEMAND MIXER,SWOFF MULLION HOT WATER OUTLET NODE,TEMPHWLOOP DEMAND SIDE OUTLET BRANCH PIPE INLET,TEMPHWLOOP,Demand
     Plant Loop Connector Branches,8,Mixer,TEMPHWLOOP DEMAND MIXER,SEOFF FAN COIL UNIT HEATING COIL TEMPHWLOOP DEMAND SIDE BRANCH,TEMPHWLOOP DEMAND SIDE OUTLET BRANCH,TEMPHWLOOP,Demand
     Plant Loop Connector Nodes,   8,Mixer,TEMPHWLOOP DEMAND MIXER,SEOFF FAN COIL UNIT HEATING COIL WATER OUTLET NODE,TEMPHWLOOP DEMAND SIDE OUTLET BRANCH PIPE INLET,TEMPHWLOOP,Demand
     Plant Loop Connector Branches,9,Mixer,TEMPHWLOOP DEMAND MIXER,SWOFF FAN COIL UNIT HEATING COIL TEMPHWLOOP DEMAND SIDE BRANCH,TEMPHWLOOP DEMAND SIDE OUTLET BRANCH,TEMPHWLOOP,Demand
     Plant Loop Connector Nodes,   9,Mixer,TEMPHWLOOP DEMAND MIXER,SWOFF FAN COIL UNIT HEATING COIL WATER OUTLET NODE,TEMPHWLOOP DEMAND SIDE OUTLET BRANCH PIPE INLET,TEMPHWLOOP,Demand
     Plant Loop Connector Branches,10,Mixer,TEMPHWLOOP DEMAND MIXER,NEOFF CHILLED CEILING TEMPHWLOOP DEMAND SIDE BRANCH,TEMPHWLOOP DEMAND SIDE OUTLET BRANCH,TEMPHWLOOP,Demand
     Plant Loop Connector Nodes,   10,Mixer,TEMPHWLOOP DEMAND MIXER,NEOFF CHILLED CEILING HW WATER OUTLET NODE,TEMPHWLOOP DEMAND SIDE OUTLET BRANCH PIPE INLET,TEMPHWLOOP,Demand
     Plant Loop Connector Branches,11,Mixer,TEMPHWLOOP DEMAND MIXER,NWOFF CHILLED CEILING TEMPHWLOOP DEMAND SIDE BRANCH,TEMPHWLOOP DEMAND SIDE OUTLET BRANCH,TEMPHWLOOP,Demand
     Plant Loop Connector Nodes,   11,Mixer,TEMPHWLOOP DEMAND MIXER,NWOFF CHILLED CEILING HW WATER OUTLET NODE,TEMPHWLOOP DEMAND SIDE OUTLET BRANCH PIPE INLET,TEMPHWLOOP,Demand
     Plant Loop Connector Branches,12,Mixer,TEMPHWLOOP DEMAND MIXER,CENTRAL CHILLED CEILING TEMPHWLOOP DEMAND SIDE BRANCH,TEMPHWLOOP DEMAND SIDE OUTLET BRANCH,TEMPHWLOOP,Demand
     Plant Loop Connector Nodes,   12,Mixer,TEMPHWLOOP DEMAND MIXER,CENTRAL CHILLED CEILING HW WATER OUTLET NODE,TEMPHWLOOP DEMAND SIDE OUTLET BRANCH PIPE INLET,TEMPHWLOOP,Demand
 Plant Loop,TEMPHWLOOP,Supply,TEMPHWLOOP SUPPLY SIDE INLET,TEMPHWLOOP SUPPLY SIDE OUTLET,TEMPHWLOOP SUPPLY SIDE BRANCHES,TEMPHWLOOP SUPPLY SIDE CONNECTORS
   Plant Loop Connector,Splitter,TEMPHWLOOP SUPPLY SPLITTER,TEMPHWLOOP,Supply,2
     Plant Loop Connector Branches,1,Splitter,TEMPHWLOOP SUPPLY SPLITTER,TEMPHWLOOP SUPPLY SIDE INLET BRANCH,TEMPHWLOOP SUPPLY SIDE BYPASS BRANCH,TEMPHWLOOP,Supply
     Plant Loop Connector Nodes,   1,Splitter,TEMPHWLOOP SUPPLY SPLITTER,TEMPHWLOOP SUPPLY PUMP WATER OUTLET NODE,TEMPHWLOOP SUPPLY SIDE BYPASS PIPE INLET NODE,TEMPHWLOOP,Supply
     Plant Loop Connector Branches,2,Splitter,TEMPHWLOOP SUPPLY SPLITTER,TEMPHWLOOP SUPPLY SIDE INLET BRANCH,CMU DISTRICTHEATING TEMPHWLOOP SUPPLY SIDE BRANCH,TEMPHWLOOP,Supply
     Plant Loop Connector Nodes,   2,Splitter,TEMPHWLOOP SUPPLY SPLITTER,TEMPHWLOOP SUPPLY PUMP WATER OUTLET NODE,CMU DISTRICTHEATING WATER INLET NODE,TEMPHWLOOP,Supply
   Plant Loop Connector,Mixer,TEMPHWLOOP SUPPLY MIXER,TEMPHWLOOP,Supply,2
     Plant Loop Connector Branches,1,Mixer,TEMPHWLOOP SUPPLY MIXER,CMU DISTRICTHEATING TEMPHWLOOP SUPPLY SIDE BRANCH,TEMPHWLOOP SUPPLY SIDE OUTLET BRANCH,TEMPHWLOOP,Supply
     Plant Loop Connector Nodes,   1,Mixer,TEMPHWLOOP SUPPLY MIXER,CMU DISTRICTHEATING WATER OUTLET NODE,TEMPHWLOOP SUPPLY SIDE OUTLET BRANCH PIPE INLET,TEMPHWLOOP,Supply
     Plant Loop Connector Branches,2,Mixer,TEMPHWLOOP SUPPLY MIXER,TEMPHWLOOP SUPPLY SIDE BYPASS BRANCH,TEMPHWLOOP SUPPLY SIDE OUTLET BRANCH,TEMPHWLOOP,Supply
     Plant Loop Connector Nodes,   2,Mixer,TEMPHWLOOP SUPPLY MIXER,TEMPHWLOOP SUPPLY SIDE BYPASS PIPE OUTLET NODE,TEMPHWLOOP SUPPLY SIDE OUTLET BRANCH PIPE INLET,TEMPHWLOOP,Supply
 Plant Loop Supply Connection,TEMPHWLOOP,TEMPHWLOOP SUPPLY SIDE OUTLET,TEMPHWLOOP DEMAND SIDE INLET
 Plant Loop Return Connection,TEMPHWLOOP,TEMPHWLOOP DEMAND SIDE OUTLET,TEMPHWLOOP SUPPLY SIDE INLET
 Plant Loop,TEMPCHWLOOP,Demand,TEMPCHWLOOP DEMAND SIDE INLET,TEMPCHWLOOP DEMAND SIDE OUTLET,TEMPCHWLOOP DEMAND SIDE BRANCHES,TEMPCHWLOOP DEMAND SIDE CONNECTORS
   Plant Loop Connector,Splitter,TEMPCHWLOOP DEMAND SPLITTER,TEMPCHWLOOP,Demand,14
     Plant Loop Connector Branches,1,Splitter,TEMPCHWLOOP DEMAND SPLITTER,TEMPCHWLOOP DEMAND SIDE INLET BRANCH,TEMPCHWLOOP DEMAND SIDE BYPASS BRANCH,TEMPCHWLOOP,Demand
     Plant Loop Connector Nodes,   1,Splitter,TEMPCHWLOOP DEMAND SPLITTER,TEMPCHWLOOP DEMAND SIDE INLET BRANCH PIPE OUTLET,TEMPCHWLOOP DEMAND SIDE BYPASS PIPE INLET NODE,TEMPCHWLOOP,Demand
     Plant Loop Connector Branches,2,Splitter,TEMPCHWLOOP DEMAND SPLITTER,TEMPCHWLOOP DEMAND SIDE INLET BRANCH,NEOFF CHILLED CEILING TEMPCHWLOOP DEMAND SIDE BRANCH,TEMPCHWLOOP,Demand
     Plant Loop Connector Nodes,   2,Splitter,TEMPCHWLOOP DEMAND SPLITTER,TEMPCHWLOOP DEMAND SIDE INLET BRANCH PIPE OUTLET,NEOFF CHILLED CEILING CHW WATER INLET NODE,TEMPCHWLOOP,Demand
     Plant Loop Connector Branches,3,Splitter,TEMPCHWLOOP DEMAND SPLITTER,TEMPCHWLOOP DEMAND SIDE INLET BRANCH,NWOFF CHILLED CEILING TEMPCHWLOOP DEMAND SIDE BRANCH,TEMPCHWLOOP,Demand
     Plant Loop Connector Nodes,   3,Splitter,TEMPCHWLOOP DEMAND SPLITTER,TEMPCHWLOOP DEMAND SIDE INLET BRANCH PIPE OUTLET,NWOFF CHILLED CEILING CHW WATER INLET NODE,TEMPCHWLOOP,Demand
     Plant Loop Connector Branches,4,Splitter,TEMPCHWLOOP DEMAND SPLITTER,TEMPCHWLOOP DEMAND SIDE INLET BRANCH,LARGECONF COOLED BEAM TEMPCHWLOOP DEMAND SIDE BRANCH,TEMPCHWLOOP,Demand
     Plant Loop Connector Nodes,   4,Splitter,TEMPCHWLOOP DEMAND SPLITTER,TEMPCHWLOOP DEMAND SIDE INLET BRANCH PIPE OUTLET,LARGECONF COOLED BEAM CHW INLET NODE,TEMPCHWLOOP,Demand
     Plant Loop Connector Branches,5,Splitter,TEMPCHWLOOP DEMAND SPLITTER,TEMPCHWLOOP DEMAND SIDE INLET BRANCH,NEOFF COOLED BEAM TEMPCHWLOOP DEMAND SIDE BRANCH,TEMPCHWLOOP,Demand
     Plant Loop Connector Nodes,   5,Splitter,TEMPCHWLOOP DEMAND SPLITTER,TEMPCHWLOOP DEMAND SIDE INLET BRANCH PIPE OUTLET,NEOFF COOLED BEAM CHW INLET NODE,TEMPCHWLOOP,Demand
     Plant Loop Connector Branches,6,Splitter,TEMPCHWLOOP DEMAND SPLITTER,TEMPCHWLOOP DEMAND SIDE INLET BRANCH,SEOFF FAN COIL UNIT COOLING COIL TEMPCHWLOOP DEMAND SIDE BRANCH,TEMPCHWLOOP,Demand
     Plant Loop Connector Nodes,   6,Splitter,TEMPCHWLOOP DEMAND SPLITTER,TEMPCHWLOOP DEMAND SIDE INLET BRANCH PIPE OUTLET,SEOFF FAN COIL UNIT COOLING COIL WATER INLET NODE,TEMPCHWLOOP,Demand
     Plant Loop Connector Branches,7,Splitter,TEMPCHWLOOP DEMAND SPLITTER,TEMPCHWLOOP DEMAND SIDE INLET BRANCH,SWOFF FAN COIL UNIT COOLING COIL TEMPCHWLOOP DEMAND SIDE BRANCH,TEMPCHWLOOP,Demand
     Plant Loop Connector Nodes,   7,Splitter,TEMPCHWLOOP DEMAND SPLITTER,TEMPCHWLOOP DEMAND SIDE INLET BRANCH PIPE OUTLET,SWOFF FAN COIL UNIT COOLING COIL WATER INLET NODE,TEMPCHWLOOP,Demand
     Plant Loop Connector Branches,8,Splitter,TEMPCHWLOOP DEMAND SPLITTER,TEMPCHWLOOP DEMAND SIDE INLET BRANCH,CENTRAL CHILLED CEILING TEMPCHWLOOP DEMAND SIDE BRANCH,TEMPCHWLOOP,Demand
     Plant Loop Connector Nodes,   8,Splitter,TEMPCHWLOOP DEMAND SPLITTER,TEMPCHWLOOP DEMAND SIDE INLET BRANCH PIPE OUTLET,CENTRAL CHILLED CEILING CHW WATER INLET NODE,TEMPCHWLOOP,Demand
     Plant Loop Connector Branches,9,Splitter,TEMPCHWLOOP DEMAND SPLITTER,TEMPCHWLOOP DEMAND SIDE INLET BRANCH,NEOFF MULLION TEMPCHWLOOP DEMAND SIDE BRANCH,TEMPCHWLOOP,Demand
     Plant Loop Connector Nodes,   9,Splitter,TEMPCHWLOOP DEMAND SPLITTER,TEMPCHWLOOP DEMAND SIDE INLET BRANCH PIPE OUTLET,NEOFF MULLION COLD WATER INLET NODE,TEMPCHWLOOP,Demand
     Plant Loop Connector Branches,10,Splitter,TEMPCHWLOOP DEMAND SPLITTER,TEMPCHWLOOP DEMAND SIDE INLET BRANCH,NWOFF MULLION TEMPCHWLOOP DEMAND SIDE BRANCH,TEMPCHWLOOP,Demand
     Plant Loop Connector Nodes,   10,Splitter,TEMPCHWLOOP DEMAND SPLITTER,TEMPCHWLOOP DEMAND SIDE INLET BRANCH PIPE OUTLET,NWOFF MULLION COLD WATER INLET NODE,TEMPCHWLOOP,Demand
     Plant Loop Connector Branches,11,Splitter,TEMPCHWLOOP DEMAND SPLITTER,TEMPCHWLOOP DEMAND SIDE INLET BRANCH,LARGECONF MULLION TEMPCHWLOOP DEMAND SIDE BRANCH,TEMPCHWLOOP,Demand
     Plant Loop Connector Nodes,   11,Splitter,TEMPCHWLOOP DEMAND SPLITTER,TEMPCHWLOOP DEMAND SIDE INLET BRANCH PIPE OUTLET,LARGECONF MULLION COLD WATER INLET NODE,TEMPCHWLOOP,Demand
     Plant Loop Connector Branches,12,Splitter,TEMPCHWLOOP DEMAND SPLITTER,TEMPCHWLOOP DEMAND SIDE INLET BRANCH,CENTRAL MULLION TEMPCHWLOOP DEMAND SIDE BRANCH,TEMPCHWLOOP,Demand
     Plant Loop Connector Nodes,   12,Splitter,TEMPCHWLOOP DEMAND SPLITTER,TEMPCHWLOOP DEMAND SIDE INLET BRANCH PIPE OUTLET,CENTRAL MULLION COLD WATER INLET NODE,TEMPCHWLOOP,Demand
     Plant Loop Connector Branches,13,Splitter,TEMPCHWLOOP DEMAND SPLITTER,TEMPCHWLOOP DEMAND SIDE INLET BRANCH,SEOFF MULLION TEMPCHWLOOP DEMAND SIDE BRANCH,TEMPCHWLOOP,Demand
     Plant Loop Connector Nodes,   13,Splitter,TEMPCHWLOOP DEMAND SPLITTER,TEMPCHWLOOP DEMAND SIDE INLET BRANCH PIPE OUTLET,SEOFF MULLION COLD WATER INLET NODE,TEMPCHWLOOP,Demand
     Plant Loop Connector Branches,14,Splitter,TEMPCHWLOOP DEMAND SPLITTER,TEMPCHWLOOP DEMAND SIDE INLET BRANCH,SWOFF MULLION TEMPCHWLOOP DEMAND SIDE BRANCH,TEMPCHWLOOP,Demand
     Plant Loop Connector Nodes,   14,Splitter,TEMPCHWLOOP DEMAND SPLITTER,TEMPCHWLOOP DEMAND SIDE INLET BRANCH PIPE OUTLET,SWOFF MULLION COLD WATER INLET NODE,TEMPCHWLOOP,Demand
   Plant Loop Connector,Mixer,TEMPCHWLOOP DEMAND MIXER,TEMPCHWLOOP,Demand,14
     Plant Loop Connector Branches,1,Mixer,TEMPCHWLOOP DEMAND MIXER,LARGECONF COOLED BEAM TEMPCHWLOOP DEMAND SIDE BRANCH,TEMPCHWLOOP DEMAND SIDE OUTLET BRANCH,TEMPCHWLOOP,Demand
     Plant Loop Connector Nodes,   1,Mixer,TEMPCHWLOOP DEMAND MIXER,LARGECONF COOLED BEAM CHW OUTLET NODE,TEMPCHWLOOP DEMAND SIDE OUTLET BRANCH PIPE INLET,TEMPCHWLOOP,Demand
     Plant Loop Connector Branches,2,Mixer,TEMPCHWLOOP DEMAND MIXER,NEOFF COOLED BEAM TEMPCHWLOOP DEMAND SIDE BRANCH,TEMPCHWLOOP DEMAND SIDE OUTLET BRANCH,TEMPCHWLOOP,Demand
     Plant Loop Connector Nodes,   2,Mixer,TEMPCHWLOOP DEMAND MIXER,NEOFF COOLED BEAM CHW OUTLET NODE,TEMPCHWLOOP DEMAND SIDE OUTLET BRANCH PIPE INLET,TEMPCHWLOOP,Demand
     Plant Loop Connector Branches,3,Mixer,TEMPCHWLOOP DEMAND MIXER,TEMPCHWLOOP DEMAND SIDE BYPASS BRANCH,TEMPCHWLOOP DEMAND SIDE OUTLET BRANCH,TEMPCHWLOOP,Demand
     Plant Loop Connector Nodes,   3,Mixer,TEMPCHWLOOP DEMAND MIXER,TEMPCHWLOOP DEMAND SIDE BYPASS PIPE OUTLET NODE,TEMPCHWLOOP DEMAND SIDE OUTLET BRANCH PIPE INLET,TEMPCHWLOOP,Demand
     Plant Loop Connector Branches,4,Mixer,TEMPCHWLOOP DEMAND MIXER,NEOFF CHILLED CEILING TEMPCHWLOOP DEMAND SIDE BRANCH,TEMPCHWLOOP DEMAND SIDE OUTLET BRANCH,TEMPCHWLOOP,Demand
     Plant Loop Connector Nodes,   4,Mixer,TEMPCHWLOOP DEMAND MIXER,NEOFF CHILLED CEILING CHW WATER OUTLET NODE,TEMPCHWLOOP DEMAND SIDE OUTLET BRANCH PIPE INLET,TEMPCHWLOOP,Demand
     Plant Loop Connector Branches,5,Mixer,TEMPCHWLOOP DEMAND MIXER,NWOFF CHILLED CEILING TEMPCHWLOOP DEMAND SIDE BRANCH,TEMPCHWLOOP DEMAND SIDE OUTLET BRANCH,TEMPCHWLOOP,Demand
     Plant Loop Connector Nodes,   5,Mixer,TEMPCHWLOOP DEMAND MIXER,NWOFF CHILLED CEILING CHW WATER OUTLET NODE,TEMPCHWLOOP DEMAND SIDE OUTLET BRANCH PIPE INLET,TEMPCHWLOOP,Demand
     Plant Loop Connector Branches,6,Mixer,TEMPCHWLOOP DEMAND MIXER,SEOFF FAN COIL UNIT COOLING COIL TEMPCHWLOOP DEMAND SIDE BRANCH,TEMPCHWLOOP DEMAND SIDE OUTLET BRANCH,TEMPCHWLOOP,Demand
     Plant Loop Connector Nodes,   6,Mixer,TEMPCHWLOOP DEMAND MIXER,SEOFF FAN COIL UNIT COOLING COIL WATER OUTLET NODE,TEMPCHWLOOP DEMAND SIDE OUTLET BRANCH PIPE INLET,TEMPCHWLOOP,Demand
     Plant Loop Connector Branches,7,Mixer,TEMPCHWLOOP DEMAND MIXER,SWOFF FAN COIL UNIT COOLING COIL TEMPCHWLOOP DEMAND SIDE BRANCH,TEMPCHWLOOP DEMAND SIDE OUTLET BRANCH,TEMPCHWLOOP,Demand
     Plant Loop Connector Nodes,   7,Mixer,TEMPCHWLOOP DEMAND MIXER,SWOFF FAN COIL UNIT COOLING COIL WATER OUTLET NODE,TEMPCHWLOOP DEMAND SIDE OUTLET BRANCH PIPE INLET,TEMPCHWLOOP,Demand
     Plant Loop Connector Branches,8,Mixer,TEMPCHWLOOP DEMAND MIXER,CENTRAL CHILLED CEILING TEMPCHWLOOP DEMAND SIDE BRANCH,TEMPCHWLOOP DEMAND SIDE OUTLET BRANCH,TEMPCHWLOOP,Demand
     Plant Loop Connector Nodes,   8,Mixer,TEMPCHWLOOP DEMAND MIXER,CENTRAL CHILLED CEILING CHW WATER OUTLET NODE,TEMPCHWLOOP DEMAND SIDE OUTLET BRANCH PIPE INLET,TEMPCHWLOOP,Demand
     Plant Loop Connector Branches,9,Mixer,TEMPCHWLOOP DEMAND MIXER,NEOFF MULLION TEMPCHWLOOP DEMAND SIDE BRANCH,TEMPCHWLOOP DEMAND SIDE OUTLET BRANCH,TEMPCHWLOOP,Demand
     Plant Loop Connector Nodes,   9,Mixer,TEMPCHWLOOP DEMAND MIXER,NEOFF MULLION COLD WATER OUTLET NODE,TEMPCHWLOOP DEMAND SIDE OUTLET BRANCH PIPE INLET,TEMPCHWLOOP,Demand
     Plant Loop Connector Branches,10,Mixer,TEMPCHWLOOP DEMAND MIXER,NWOFF MULLION TEMPCHWLOOP DEMAND SIDE BRANCH,TEMPCHWLOOP DEMAND SIDE OUTLET BRANCH,TEMPCHWLOOP,Demand
     Plant Loop Connector Nodes,   10,Mixer,TEMPCHWLOOP DEMAND MIXER,NWOFF MULLION COLD WATER OUTLET NODE,TEMPCHWLOOP DEMAND SIDE OUTLET BRANCH PIPE INLET,TEMPCHWLOOP,Demand
     Plant Loop Connector Branches,11,Mixer,TEMPCHWLOOP DEMAND MIXER,LARGECONF MULLION TEMPCHWLOOP DEMAND SIDE BRANCH,TEMPCHWLOOP DEMAND SIDE OUTLET BRANCH,TEMPCHWLOOP,Demand
     Plant Loop Connector Nodes,   11,Mixer,TEMPCHWLOOP DEMAND MIXER,LARGECONF MULLION COLD WATER OUTLET NODE,TEMPCHWLOOP DEMAND SIDE OUTLET BRANCH PIPE INLET,TEMPCHWLOOP,Demand
     Plant Loop Connector Branches,12,Mixer,TEMPCHWLOOP DEMAND MIXER,CENTRAL MULLION TEMPCHWLOOP DEMAND SIDE BRANCH,TEMPCHWLOOP DEMAND SIDE OUTLET BRANCH,TEMPCHWLOOP,Demand
     Plant Loop Connector Nodes,   12,Mixer,TEMPCHWLOOP DEMAND MIXER,CENTRAL MULLION COLD WATER OUTLET NODE,TEMPCHWLOOP DEMAND SIDE OUTLET BRANCH PIPE INLET,TEMPCHWLOOP,Demand
     Plant Loop Connector Branches,13,Mixer,TEMPCHWLOOP DEMAND MIXER,SEOFF MULLION TEMPCHWLOOP DEMAND SIDE BRANCH,TEMPCHWLOOP DEMAND SIDE OUTLET BRANCH,TEMPCHWLOOP,Demand
     Plant Loop Connector Nodes,   13,Mixer,TEMPCHWLOOP DEMAND MIXER,SEOFF MULLION COLD WATER OUTLET NODE,TEMPCHWLOOP DEMAND SIDE OUTLET BRANCH PIPE INLET,TEMPCHWLOOP,Demand
     Plant Loop Connector Branches,14,Mixer,TEMPCHWLOOP DEMAND MIXER,SWOFF MULLION TEMPCHWLOOP DEMAND SIDE BRANCH,TEMPCHWLOOP DEMAND SIDE OUTLET BRANCH,TEMPCHWLOOP,Demand
     Plant Loop Connector Nodes,   14,Mixer,TEMPCHWLOOP DEMAND MIXER,SWOFF MULLION COLD WATER OUTLET NODE,TEMPCHWLOOP DEMAND SIDE OUTLET BRANCH PIPE INLET,TEMPCHWLOOP,Demand
 Plant Loop,TEMPCHWLOOP,Supply,TEMPCHWLOOP SUPPLY SIDE INLET,TEMPCHWLOOP SUPPLY SIDE OUTLET,TEMPCHWLOOP SUPPLY SIDE BRANCHES,TEMPCHWLOOP SUPPLY SIDE CONNECTORS
   Plant Loop Connector,Splitter,TEMPCHWLOOP SUPPLY SPLITTER,TEMPCHWLOOP,Supply,2
     Plant Loop Connector Branches,1,Splitter,TEMPCHWLOOP SUPPLY SPLITTER,TEMPCHWLOOP SUPPLY SIDE INLET BRANCH,TEMPCHWLOOP SUPPLY SIDE BYPASS BRANCH,TEMPCHWLOOP,Supply
     Plant Loop Connector Nodes,   1,Splitter,TEMPCHWLOOP SUPPLY SPLITTER,TEMPCHWLOOP SUPPLY PUMP WATER OUTLET NODE,TEMPCHWLOOP SUPPLY SIDE BYPASS PIPE INLET NODE,TEMPCHWLOOP,Supply
     Plant Loop Connector Branches,2,Splitter,TEMPCHWLOOP SUPPLY SPLITTER,TEMPCHWLOOP SUPPLY SIDE INLET BRANCH,CMU DISTRICTCOOLING TEMPCHWLOOP SUPPLY SIDE BRANCH,TEMPCHWLOOP,Supply
     Plant Loop Connector Nodes,   2,Splitter,TEMPCHWLOOP SUPPLY SPLITTER,TEMPCHWLOOP SUPPLY PUMP WATER OUTLET NODE,CMU DISTRICTCOOLING CHW INLET NODE,TEMPCHWLOOP,Supply
   Plant Loop Connector,Mixer,TEMPCHWLOOP SUPPLY MIXER,TEMPCHWLOOP,Supply,2
     Plant Loop Connector Branches,1,Mixer,TEMPCHWLOOP SUPPLY MIXER,CMU DISTRICTCOOLING TEMPCHWLOOP SUPPLY SIDE BRANCH,TEMPCHWLOOP SUPPLY SIDE OUTLET BRANCH,TEMPCHWLOOP,Supply
     Plant Loop Connector Nodes,   1,Mixer,TEMPCHWLOOP SUPPLY MIXER,CMU DISTRICTCOOLING CHW OUTLET NODE,TEMPCHWLOOP SUPPLY SIDE OUTLET BRANCH PIPE INLET,TEMPCHWLOOP,Supply
     Plant Loop Connector Branches,2,Mixer,TEMPCHWLOOP SUPPLY MIXER,TEMPCHWLOOP SUPPLY SIDE BYPASS BRANCH,TEMPCHWLOOP SUPPLY SIDE OUTLET BRANCH,TEMPCHWLOOP,Supply
     Plant Loop Connector Nodes,   2,Mixer,TEMPCHWLOOP SUPPLY MIXER,TEMPCHWLOOP SUPPLY SIDE BYPASS PIPE OUTLET NODE,TEMPCHWLOOP SUPPLY SIDE OUTLET BRANCH PIPE INLET,TEMPCHWLOOP,Supply
 Plant Loop Supply Connection,TEMPCHWLOOP,TEMPCHWLOOP SUPPLY SIDE OUTLET,TEMPCHWLOOP DEMAND SIDE INLET
 Plant Loop Return Connection,TEMPCHWLOOP,TEMPCHWLOOP DEMAND SIDE OUTLET,TEMPCHWLOOP SUPPLY SIDE INLET
! ===============================================================
! <# Condenser Loops>,<Number of Condenser Loops>
 #Condenser Loops,0
! <Condenser Loop>,<Condenser Loop Name>,<Loop Type>,<Inlet Node Name>,<Outlet Node Name>,<Branch List>,<Connector List>
! <Condenser Loop Connector>,<Connector Type>,<Connector Name>,<Loop Name>,<Loop Type>,<Number of Inlets/Outlets>
! <Condenser Loop Connector Branches>,<Connector Node Count>,<Connector Type>,<Connector Name>,<Inlet Branch>,<Outlet Branch>,<Loop Name>,<Loop Type>
! <Condenser Loop Connector Nodes>,<Connector Node Count>,<Connector Type>,<Connector Name>,<Inlet Node>,<Outlet Node>,<Loop Name>,<Loop Type>
! <Condenser Loop Supply Connection>,<Condenser Loop Name>,<Supply Side Outlet Node Name>,<Demand Side Inlet Node Name>
! <Condenser Loop Return Connection>,<Condenser Loop Name>,<Demand Side Outlet Node Name>,<Supply Side Inlet Node Name>
! ===============================================================
! <# Controlled Zones>,<Number of Controlled Zones>
 #Controlled Zones,6
! <Controlled Zone>,<Controlled Zone Name>,<Equip List Name>,<Control List Name>,<Zone Node Name>,<Return Air Node Name>,<# Inlet Nodes>,<# Exhaust Nodes>
! <Controlled Zone Inlet>,<Inlet Node Count>,<Controlled Zone Name>,<Supply Air Inlet Node Name>,<SD Sys:Cooling/Heating [DD:Cooling] Inlet Node Name>,<DD Sys:Heating Inlet Node Name>
! <Controlled Zone Exhaust>,<Exhaust Node Count>,<Controlled Zone Name>,<Exhaust Air Node Name>
 Controlled Zone,SWOFF,SWOFF EQUIPMENT,,SWOFF ZONE AIR NODE,DOAS ZONE MIXER INLET NODE SWOFF,2,1
   Controlled Zone Inlet,1,SWOFF,SWOFF FAN COIL UNIT SUPPLY INLET,Undefined,N/A
   Controlled Zone Inlet,2,SWOFF,DOAS ZONE SPLITTER OUTLET NODE SWOFF,DOAS ZONE SPLITTER OUTLET NODE SWOFF,N/A
   Controlled Zone Exhaust,1,SWOFF,SWOFF FAN COIL UNIT RETURN
 Controlled Zone,SEOFF,SEOFF EQUIPMENT,,SEOFF ZONE AIR NODE,DOAS ZONE MIXER INLET NODE SEOFF,2,1
   Controlled Zone Inlet,1,SEOFF,DOAS ZONE SPLITTER OUTLET NODE SEOFF,DOAS ZONE SPLITTER OUTLET NODE SEOFF,N/A
   Controlled Zone Inlet,2,SEOFF,SEOFF FAN COIL UNIT SUPPLY INLET,Undefined,N/A
   Controlled Zone Exhaust,1,SEOFF,SEOFF FAN COIL UNIT RETURN
 Controlled Zone,NWOFF,NWOFF EQUIPMENT,,NWOFF ZONE AIR NODE,NWOFF RETURN OUTLET,0,0
 Controlled Zone,NEOFF,NEOFF EQUIPMENT,,NEOFF ZONE AIR NODE,DOAS ZONE MIXER INLET NODE NEOFF,1,0
   Controlled Zone Inlet,1,NEOFF,NEOFF COOLED BEAM SUPPLY INLET,DOAS ZONE SPLITTER OUTLET NODE NEOFF,N/A
 Controlled Zone,CENTRAL,CENTRAL EQUIPMENT,,CENTRAL ZONE AIR NODE,CENTRAL RETURN OUTLET,0,0
 Controlled Zone,LARGECONF,LARGECONF EQUIPMENT,,LARGECONF ZONE AIR NODE,DOAS ZONE MIXER INLET NODE LARGECONF,1,0
   Controlled Zone Inlet,1,LARGECONF,LARGECONF COOLED BEAM SUPPLY INLET,DOAS ZONE SPLITTER OUTLET NODE LARGECONF,N/A
! ===============================================================
! <#Zone Equipment Lists>,<Number of Zone Equipment Lists>
 #Zone Equipment Lists,6
! <Zone Equipment List>,<Zone Equipment List Count>,<Zone Equipment List Name>,<Zone Name>,<Number of Components>
! <Zone Equipment Component>,<Component Count>,<Component Type>,<Component Name>,<Zone Name>,<Heating Priority>,<Cooling Priority>
 Zone Equipment List,11,SWOFF EQUIPMENT,SWOFF,3
   Zone Equipment Component,1,ZONEHVAC:FOURPIPEFANCOIL,SWOFF FAN COIL UNIT,SWOFF,3,3
   Zone Equipment Component,2,AIRTERMINAL:SINGLEDUCT:UNCONTROLLED,SWOFF DIRECT AIR,SWOFF,2,2
   Zone Equipment Component,3,ZONEHVAC:LOWTEMPERATURERADIANT:CONSTANTFLOW,SWOFF MULLION,SWOFF,1,1
 Zone Equipment List,12,SEOFF EQUIPMENT,SEOFF,3
   Zone Equipment Component,1,ZONEHVAC:FOURPIPEFANCOIL,SEOFF FAN COIL UNIT,SEOFF,3,3
   Zone Equipment Component,2,AIRTERMINAL:SINGLEDUCT:UNCONTROLLED,SEOFF DIRECT AIR,SEOFF,2,2
   Zone Equipment Component,3,ZONEHVAC:LOWTEMPERATURERADIANT:CONSTANTFLOW,SEOFF MULLION,SEOFF,1,1
 Zone Equipment List,13,NWOFF EQUIPMENT,NWOFF,2
   Zone Equipment Component,1,ZONEHVAC:LOWTEMPERATURERADIANT:CONSTANTFLOW,NWOFF MULLION,NWOFF,1,1
   Zone Equipment Component,2,ZONEHVAC:LOWTEMPERATURERADIANT:CONSTANTFLOW,NWOFF CHILLED CEILING,NWOFF,2,2
 Zone Equipment List,14,NEOFF EQUIPMENT,NEOFF,3
   Zone Equipment Component,1,ZONEHVAC:AIRDISTRIBUTIONUNIT,NEOFF COOLED BEAM ADU,NEOFF,3,3
   Zone Equipment Component,2,ZONEHVAC:LOWTEMPERATURERADIANT:CONSTANTFLOW,NEOFF MULLION,NEOFF,1,1
   Zone Equipment Component,3,ZONEHVAC:LOWTEMPERATURERADIANT:CONSTANTFLOW,NEOFF CHILLED CEILING,NEOFF,2,2
 Zone Equipment List,15,CENTRAL EQUIPMENT,CENTRAL,2
   Zone Equipment Component,1,ZONEHVAC:LOWTEMPERATURERADIANT:CONSTANTFLOW,CENTRAL MULLION,CENTRAL,1,1
   Zone Equipment Component,2,ZONEHVAC:LOWTEMPERATURERADIANT:CONSTANTFLOW,CENTRAL CHILLED CEILING,CENTRAL,2,2
 Zone Equipment List,16,LARGECONF EQUIPMENT,LARGECONF,2
   Zone Equipment Component,1,ZONEHVAC:LOWTEMPERATURERADIANT:CONSTANTFLOW,LARGECONF MULLION,LARGECONF,1,1
   Zone Equipment Component,2,ZONEHVAC:AIRDISTRIBUTIONUNIT,LARGECONF COOLED BEAM ADU,LARGECONF,2,2
! ===============================================================
! <#AirLoopHVACs>,<Number of AirLoopHVACs>
 #AirLoopHVACs,1
! <AirLoopHVAC>,<Air Loop Name>,<# Return Nodes>,<# Supply Nodes>,<# Zones Cooled>,<# Zones Heated>,<Outdoor Air Used>
! <AirLoop Return Connections>,<Connection Count>,<AirLoopHVAC Name>,<Zn Eqp Return Node #>,<Zn Eqp Return Node Name>,<AirLoop Return Node #>,<Air Loop Return Node Name>
! <AirLoop Supply Connections>,<Connection Count>,<AirLoopHVAC Name>,<Zn Eqp Supply Node #>,<Zn Eqp Supply Node Name>,<AirLoop Supply Node #>,<Air Loop Supply Node Name>
! <Cooled Zone Info>,<Cooled Zone Count>,<Cooled Zone Name>,<Cooled Zone Inlet Node #>,<Cooled Zone Inlet Node Name>,<AirLoopHVAC Name>
! <Heated Zone Info>,<Heated Zone Count>,<Heated Zone Name>,<Heated Zone Inlet Node #>,<Heated Zone Inlet Node Name>,<AirLoopHVAC Name>
! <Outdoor Air Connections>,<OA Inlet Node #>,<OA Return Air Inlet Node Name>,<OA Outlet Node #>,<OA Mixed Air Outlet Node Name>,<AirLoopHVAC Name>
! <AirLoopHVAC Connector>,<Connector Type>,<Connector Name>,<Loop Name>,<Loop Type>,<Number of Inlets/Outlets>
! <AirLoopHVAC Connector Branches>,<Connector Node Count>,<Connector Type>,<Connector Name>,<Inlet Branch>,<Outlet Branch>,<Loop Name>,<Loop Type>
! <AirLoopHVAC Connector Nodes>,<Connector Node Count>,<Connector Type>,<Connector Name>,<Inlet Node>,<Outlet Node>,<Loop Name>,<Loop Type>
 AirLoopHVAC,DOAS,1,1,4,0,Yes
   AirLoop Return Connections,1,DOAS,108,DOAS DEMAND SIDE OUTLET,11,DOAS SUPPLY SIDE INLET
   AirLoop Supply Connections,1,DOAS,1,DOAS DEMAND SIDE INLET 1,2,DOAS SUPPLY SIDE OUTLET 1
   Cooled Zone Info,1,SEOFF,3,DOAS ZONE SPLITTER OUTLET NODE SEOFF,DOAS
   Cooled Zone Info,2,SWOFF,6,DOAS ZONE SPLITTER OUTLET NODE SWOFF,DOAS
   Cooled Zone Info,3,LARGECONF,7,LARGECONF COOLED BEAM SUPPLY INLET,DOAS
   Cooled Zone Info,4,NEOFF,8,NEOFF COOLED BEAM SUPPLY INLET,DOAS
   Outdoor Air Connections,12,DOAS AHU EXTRACT FAN AIR OUTLET NODE,13,DOAS AHU MIXED AIR OUTLET,DOAS
! ===============================================================
! <#Parent Node Connections>,<Number of Parent Node Connections>
 #Parent Node Connections,111
! <Parent Node Connection>,<Node Name>,<Node ObjectType>,<Node ObjectName>,<Node ConnectionType>,<Node FluidStream>
 Parent Node Connection,DOAS SUPPLY SIDE INLET,BRANCH,DOAS AHU MAIN BRANCH,Inlet,1
 Parent Node Connection,DOAS AHU EXTRACT FAN AIR OUTLET NODE,BRANCH,DOAS AHU MAIN BRANCH,Internal,1
 Parent Node Connection,DOAS AHU MIXED AIR OUTLET,BRANCH,DOAS AHU MAIN BRANCH,Internal,1
 Parent Node Connection,DOAS AHU SUPPLY FAN OUTLET,BRANCH,DOAS AHU MAIN BRANCH,Internal,1
 Parent Node Connection,DOAS AHU UNITARY COOLING COIL DX COOLING COIL AIR OUTLET NODE,BRANCH,DOAS AHU MAIN BRANCH,Internal,1
 Parent Node Connection,DOAS SUPPLY SIDE OUTLET 1,BRANCH,DOAS AHU MAIN BRANCH,Outlet,1
 Parent Node Connection,TEMPHWLOOP DEMAND SIDE INLET,BRANCH,TEMPHWLOOP DEMAND SIDE INLET BRANCH,Inlet,1
 Parent Node Connection,TEMPHWLOOP DEMAND SIDE INLET BRANCH PIPE OUTLET,BRANCH,TEMPHWLOOP DEMAND SIDE INLET BRANCH,Outlet,1
 Parent Node Connection,TEMPHWLOOP DEMAND SIDE BYPASS PIPE INLET NODE,BRANCH,TEMPHWLOOP DEMAND SIDE BYPASS BRANCH,Inlet,1
 Parent Node Connection,TEMPHWLOOP DEMAND SIDE BYPASS PIPE OUTLET NODE,BRANCH,TEMPHWLOOP DEMAND SIDE BYPASS BRANCH,Outlet,1
 Parent Node Connection,NEOFF MULLION HOT WATER INLET NODE,BRANCH,NEOFF MULLION TEMPHWLOOP DEMAND SIDE BRANCH,Inlet,1
 Parent Node Connection,NEOFF MULLION HOT WATER OUTLET NODE,BRANCH,NEOFF MULLION TEMPHWLOOP DEMAND SIDE BRANCH,Outlet,1
 Parent Node Connection,NEOFF MULLION COLD WATER INLET NODE,BRANCH,NEOFF MULLION TEMPCHWLOOP DEMAND SIDE BRANCH,Inlet,1
 Parent Node Connection,NEOFF MULLION COLD WATER OUTLET NODE,BRANCH,NEOFF MULLION TEMPCHWLOOP DEMAND SIDE BRANCH,Outlet,1
 Parent Node Connection,NWOFF MULLION HOT WATER INLET NODE,BRANCH,NWOFF MULLION TEMPHWLOOP DEMAND SIDE BRANCH,Inlet,1
 Parent Node Connection,NWOFF MULLION HOT WATER OUTLET NODE,BRANCH,NWOFF MULLION TEMPHWLOOP DEMAND SIDE BRANCH,Outlet,1
 Parent Node Connection,NWOFF MULLION COLD WATER INLET NODE,BRANCH,NWOFF MULLION TEMPCHWLOOP DEMAND SIDE BRANCH,Inlet,1
 Parent Node Connection,NWOFF MULLION COLD WATER OUTLET NODE,BRANCH,NWOFF MULLION TEMPCHWLOOP DEMAND SIDE BRANCH,Outlet,1
 Parent Node Connection,LARGECONF MULLION HOT WATER INLET NODE,BRANCH,LARGECONF MULLION TEMPHWLOOP DEMAND SIDE BRANCH,Inlet,1
 Parent Node Connection,LARGECONF MULLION HOT WATER OUTLET NODE,BRANCH,LARGECONF MULLION TEMPHWLOOP DEMAND SIDE BRANCH,Outlet,1
 Parent Node Connection,LARGECONF MULLION COLD WATER INLET NODE,BRANCH,LARGECONF MULLION TEMPCHWLOOP DEMAND SIDE BRANCH,Inlet,1
 Parent Node Connection,LARGECONF MULLION COLD WATER OUTLET NODE,BRANCH,LARGECONF MULLION TEMPCHWLOOP DEMAND SIDE BRANCH,Outlet,1
 Parent Node Connection,CENTRAL MULLION HOT WATER INLET NODE,BRANCH,CENTRAL MULLION TEMPHWLOOP DEMAND SIDE BRANCH,Inlet,1
 Parent Node Connection,CENTRAL MULLION HOT WATER OUTLET NODE,BRANCH,CENTRAL MULLION TEMPHWLOOP DEMAND SIDE BRANCH,Outlet,1
 Parent Node Connection,CENTRAL MULLION COLD WATER INLET NODE,BRANCH,CENTRAL MULLION TEMPCHWLOOP DEMAND SIDE BRANCH,Inlet,1
 Parent Node Connection,CENTRAL MULLION COLD WATER OUTLET NODE,BRANCH,CENTRAL MULLION TEMPCHWLOOP DEMAND SIDE BRANCH,Outlet,1
 Parent Node Connection,SEOFF MULLION HOT WATER INLET NODE,BRANCH,SEOFF MULLION TEMPHWLOOP DEMAND SIDE BRANCH,Inlet,1
 Parent Node Connection,SEOFF MULLION HOT WATER OUTLET NODE,BRANCH,SEOFF MULLION TEMPHWLOOP DEMAND SIDE BRANCH,Outlet,1
 Parent Node Connection,SEOFF MULLION COLD WATER INLET NODE,BRANCH,SEOFF MULLION TEMPCHWLOOP DEMAND SIDE BRANCH,Inlet,1
 Parent Node Connection,SEOFF MULLION COLD WATER OUTLET NODE,BRANCH,SEOFF MULLION TEMPCHWLOOP DEMAND SIDE BRANCH,Outlet,1
 Parent Node Connection,SWOFF MULLION HOT WATER INLET NODE,BRANCH,SWOFF MULLION TEMPHWLOOP DEMAND SIDE BRANCH,Inlet,1
 Parent Node Connection,SWOFF MULLION HOT WATER OUTLET NODE,BRANCH,SWOFF MULLION TEMPHWLOOP DEMAND SIDE BRANCH,Outlet,1
 Parent Node Connection,SWOFF MULLION COLD WATER INLET NODE,BRANCH,SWOFF MULLION TEMPCHWLOOP DEMAND SIDE BRANCH,Inlet,1
 Parent Node Connection,SWOFF MULLION COLD WATER OUTLET NODE,BRANCH,SWOFF MULLION TEMPCHWLOOP DEMAND SIDE BRANCH,Outlet,1
 Parent Node Connection,SEOFF FAN COIL UNIT HEATING COIL WATER INLET NODE,BRANCH,SEOFF FAN COIL UNIT HEATING COIL TEMPHWLOOP DEMAND SIDE BRANCH,Inlet,1
 Parent Node Connection,SEOFF FAN COIL UNIT HEATING COIL WATER OUTLET NODE,BRANCH,SEOFF FAN COIL UNIT HEATING COIL TEMPHWLOOP DEMAND SIDE BRANCH,Outlet,1
 Parent Node Connection,SWOFF FAN COIL UNIT HEATING COIL WATER INLET NODE,BRANCH,SWOFF FAN COIL UNIT HEATING COIL TEMPHWLOOP DEMAND SIDE BRANCH,Inlet,1
 Parent Node Connection,SWOFF FAN COIL UNIT HEATING COIL WATER OUTLET NODE,BRANCH,SWOFF FAN COIL UNIT HEATING COIL TEMPHWLOOP DEMAND SIDE BRANCH,Outlet,1
 Parent Node Connection,TEMPHWLOOP DEMAND SIDE OUTLET BRANCH PIPE INLET,BRANCH,TEMPHWLOOP DEMAND SIDE OUTLET BRANCH,Inlet,1
 Parent Node Connection,TEMPHWLOOP DEMAND SIDE OUTLET,BRANCH,TEMPHWLOOP DEMAND SIDE OUTLET BRANCH,Outlet,1
 Parent Node Connection,TEMPHWLOOP SUPPLY SIDE INLET,BRANCH,TEMPHWLOOP SUPPLY SIDE INLET BRANCH,Inlet,1
 Parent Node Connection,TEMPHWLOOP SUPPLY PUMP WATER OUTLET NODE,BRANCH,TEMPHWLOOP SUPPLY SIDE INLET BRANCH,Outlet,1
 Parent Node Connection,TEMPHWLOOP SUPPLY SIDE BYPASS PIPE INLET NODE,BRANCH,TEMPHWLOOP SUPPLY SIDE BYPASS BRANCH,Inlet,1
 Parent Node Connection,TEMPHWLOOP SUPPLY SIDE BYPASS PIPE OUTLET NODE,BRANCH,TEMPHWLOOP SUPPLY SIDE BYPASS BRANCH,Outlet,1
 Parent Node Connection,CMU DISTRICTHEATING WATER INLET NODE,BRANCH,CMU DISTRICTHEATING TEMPHWLOOP SUPPLY SIDE BRANCH,Inlet,1
 Parent Node Connection,CMU DISTRICTHEATING WATER OUTLET NODE,BRANCH,CMU DISTRICTHEATING TEMPHWLOOP SUPPLY SIDE BRANCH,Outlet,1
 Parent Node Connection,TEMPHWLOOP SUPPLY SIDE OUTLET BRANCH PIPE INLET,BRANCH,TEMPHWLOOP SUPPLY SIDE OUTLET BRANCH,Inlet,1
 Parent Node Connection,TEMPHWLOOP SUPPLY SIDE OUTLET,BRANCH,TEMPHWLOOP SUPPLY SIDE OUTLET BRANCH,Outlet,1
 Parent Node Connection,TEMPCHWLOOP DEMAND SIDE INLET,BRANCH,TEMPCHWLOOP DEMAND SIDE INLET BRANCH,Inlet,1
 Parent Node Connection,TEMPCHWLOOP DEMAND SIDE INLET BRANCH PIPE OUTLET,BRANCH,TEMPCHWLOOP DEMAND SIDE INLET BRANCH,Outlet,1
 Parent Node Connection,TEMPCHWLOOP DEMAND SIDE BYPASS PIPE INLET NODE,BRANCH,TEMPCHWLOOP DEMAND SIDE BYPASS BRANCH,Inlet,1
 Parent Node Connection,TEMPCHWLOOP DEMAND SIDE BYPASS PIPE OUTLET NODE,BRANCH,TEMPCHWLOOP DEMAND SIDE BYPASS BRANCH,Outlet,1
 Parent Node Connection,NEOFF CHILLED CEILING CHW WATER INLET NODE,BRANCH,NEOFF CHILLED CEILING TEMPCHWLOOP DEMAND SIDE BRANCH,Inlet,1
 Parent Node Connection,NEOFF CHILLED CEILING CHW WATER OUTLET NODE,BRANCH,NEOFF CHILLED CEILING TEMPCHWLOOP DEMAND SIDE BRANCH,Outlet,1
 Parent Node Connection,NEOFF CHILLED CEILING HW WATER INLET NODE,BRANCH,NEOFF CHILLED CEILING TEMPHWLOOP DEMAND SIDE BRANCH,Inlet,1
 Parent Node Connection,NEOFF CHILLED CEILING HW WATER OUTLET NODE,BRANCH,NEOFF CHILLED CEILING TEMPHWLOOP DEMAND SIDE BRANCH,Outlet,1
 Parent Node Connection,NWOFF CHILLED CEILING CHW WATER INLET NODE,BRANCH,NWOFF CHILLED CEILING TEMPCHWLOOP DEMAND SIDE BRANCH,Inlet,1
 Parent Node Connection,NWOFF CHILLED CEILING CHW WATER OUTLET NODE,BRANCH,NWOFF CHILLED CEILING TEMPCHWLOOP DEMAND SIDE BRANCH,Outlet,1
 Parent Node Connection,NWOFF CHILLED CEILING HW WATER INLET NODE,BRANCH,NWOFF CHILLED CEILING TEMPHWLOOP DEMAND SIDE BRANCH,Inlet,1
 Parent Node Connection,NWOFF CHILLED CEILING HW WATER OUTLET NODE,BRANCH,NWOFF CHILLED CEILING TEMPHWLOOP DEMAND SIDE BRANCH,Outlet,1
 Parent Node Connection,LARGECONF COOLED BEAM CHW INLET NODE,BRANCH,LARGECONF COOLED BEAM TEMPCHWLOOP DEMAND SIDE BRANCH,Inlet,1
 Parent Node Connection,LARGECONF COOLED BEAM CHW OUTLET NODE,BRANCH,LARGECONF COOLED BEAM TEMPCHWLOOP DEMAND SIDE BRANCH,Outlet,1
 Parent Node Connection,NEOFF COOLED BEAM CHW INLET NODE,BRANCH,NEOFF COOLED BEAM TEMPCHWLOOP DEMAND SIDE BRANCH,Inlet,1
 Parent Node Connection,NEOFF COOLED BEAM CHW OUTLET NODE,BRANCH,NEOFF COOLED BEAM TEMPCHWLOOP DEMAND SIDE BRANCH,Outlet,1
 Parent Node Connection,SEOFF FAN COIL UNIT COOLING COIL WATER INLET NODE,BRANCH,SEOFF FAN COIL UNIT COOLING COIL TEMPCHWLOOP DEMAND SIDE BRANCH,Inlet,1
 Parent Node Connection,SEOFF FAN COIL UNIT COOLING COIL WATER OUTLET NODE,BRANCH,SEOFF FAN COIL UNIT COOLING COIL TEMPCHWLOOP DEMAND SIDE BRANCH,Outlet,1
 Parent Node Connection,SWOFF FAN COIL UNIT COOLING COIL WATER INLET NODE,BRANCH,SWOFF FAN COIL UNIT COOLING COIL TEMPCHWLOOP DEMAND SIDE BRANCH,Inlet,1
 Parent Node Connection,SWOFF FAN COIL UNIT COOLING COIL WATER OUTLET NODE,BRANCH,SWOFF FAN COIL UNIT COOLING COIL TEMPCHWLOOP DEMAND SIDE BRANCH,Outlet,1
 Parent Node Connection,CENTRAL CHILLED CEILING CHW WATER INLET NODE,BRANCH,CENTRAL CHILLED CEILING TEMPCHWLOOP DEMAND SIDE BRANCH,Inlet,1
 Parent Node Connection,CENTRAL CHILLED CEILING CHW WATER OUTLET NODE,BRANCH,CENTRAL CHILLED CEILING TEMPCHWLOOP DEMAND SIDE BRANCH,Outlet,1
 Parent Node Connection,CENTRAL CHILLED CEILING HW WATER INLET NODE,BRANCH,CENTRAL CHILLED CEILING TEMPHWLOOP DEMAND SIDE BRANCH,Inlet,1
 Parent Node Connection,CENTRAL CHILLED CEILING HW WATER OUTLET NODE,BRANCH,CENTRAL CHILLED CEILING TEMPHWLOOP DEMAND SIDE BRANCH,Outlet,1
 Parent Node Connection,TEMPCHWLOOP DEMAND SIDE OUTLET BRANCH PIPE INLET,BRANCH,TEMPCHWLOOP DEMAND SIDE OUTLET BRANCH,Inlet,1
 Parent Node Connection,TEMPCHWLOOP DEMAND SIDE OUTLET,BRANCH,TEMPCHWLOOP DEMAND SIDE OUTLET BRANCH,Outlet,1
 Parent Node Connection,TEMPCHWLOOP SUPPLY SIDE INLET,BRANCH,TEMPCHWLOOP SUPPLY SIDE INLET BRANCH,Inlet,1
 Parent Node Connection,TEMPCHWLOOP SUPPLY PUMP WATER OUTLET NODE,BRANCH,TEMPCHWLOOP SUPPLY SIDE INLET BRANCH,Outlet,1
 Parent Node Connection,TEMPCHWLOOP SUPPLY SIDE BYPASS PIPE INLET NODE,BRANCH,TEMPCHWLOOP SUPPLY SIDE BYPASS BRANCH,Inlet,1
 Parent Node Connection,TEMPCHWLOOP SUPPLY SIDE BYPASS PIPE OUTLET NODE,BRANCH,TEMPCHWLOOP SUPPLY SIDE BYPASS BRANCH,Outlet,1
 Parent Node Connection,CMU DISTRICTCOOLING CHW INLET NODE,BRANCH,CMU DISTRICTCOOLING TEMPCHWLOOP SUPPLY SIDE BRANCH,Inlet,1
 Parent Node Connection,CMU DISTRICTCOOLING CHW OUTLET NODE,BRANCH,CMU DISTRICTCOOLING TEMPCHWLOOP SUPPLY SIDE BRANCH,Outlet,1
 Parent Node Connection,TEMPCHWLOOP SUPPLY SIDE OUTLET BRANCH PIPE INLET,BRANCH,TEMPCHWLOOP SUPPLY SIDE OUTLET BRANCH,Inlet,1
 Parent Node Connection,TEMPCHWLOOP SUPPLY SIDE OUTLET,BRANCH,TEMPCHWLOOP SUPPLY SIDE OUTLET BRANCH,Outlet,1
 Parent Node Connection,TEMPHWLOOP SUPPLY SIDE INLET,PLANTLOOP,TEMPHWLOOP,Inlet,1
 Parent Node Connection,TEMPHWLOOP SUPPLY SIDE OUTLET,PLANTLOOP,TEMPHWLOOP,Outlet,1
 Parent Node Connection,TEMPHWLOOP DEMAND SIDE INLET,PLANTLOOP,TEMPHWLOOP,Inlet,1
 Parent Node Connection,TEMPHWLOOP DEMAND SIDE OUTLET,PLANTLOOP,TEMPHWLOOP,Outlet,1
 Parent Node Connection,TEMPHWLOOP SUPPLY SIDE OUTLET,PLANTLOOP,TEMPHWLOOP,Sensor,1
 Parent Node Connection,TEMPCHWLOOP SUPPLY SIDE INLET,PLANTLOOP,TEMPCHWLOOP,Inlet,1
 Parent Node Connection,TEMPCHWLOOP SUPPLY SIDE OUTLET,PLANTLOOP,TEMPCHWLOOP,Outlet,1
 Parent Node Connection,TEMPCHWLOOP DEMAND SIDE INLET,PLANTLOOP,TEMPCHWLOOP,Inlet,1
 Parent Node Connection,TEMPCHWLOOP DEMAND SIDE OUTLET,PLANTLOOP,TEMPCHWLOOP,Outlet,1
 Parent Node Connection,TEMPCHWLOOP SUPPLY SIDE OUTLET,PLANTLOOP,TEMPCHWLOOP,Sensor,1
 Parent Node Connection,DOAS DEMAND SIDE INLET 1,AIRLOOPHVAC:SUPPLYPATH,DOAS DEMAND SIDE SUPPLY PATH 1,Inlet,1
 Parent Node Connection,DOAS DEMAND SIDE OUTLET,AIRLOOPHVAC:RETURNPATH,DOAS DEMAND SIDE RETURN PATH,Outlet,1
 Parent Node Connection,SEOFF FAN COIL UNIT RETURN,ZONEHVAC:FOURPIPEFANCOIL,SEOFF FAN COIL UNIT,Inlet,1
 Parent Node Connection,SEOFF FAN COIL UNIT SUPPLY INLET,ZONEHVAC:FOURPIPEFANCOIL,SEOFF FAN COIL UNIT,Outlet,1
 Parent Node Connection,SWOFF FAN COIL UNIT RETURN,ZONEHVAC:FOURPIPEFANCOIL,SWOFF FAN COIL UNIT,Inlet,1
 Parent Node Connection,SWOFF FAN COIL UNIT SUPPLY INLET,ZONEHVAC:FOURPIPEFANCOIL,SWOFF FAN COIL UNIT,Outlet,1
 Parent Node Connection,LARGECONF COOLED BEAM SUPPLY INLET,ZONEHVAC:AIRDISTRIBUTIONUNIT,LARGECONF COOLED BEAM ADU,Outlet,1
 Parent Node Connection,NEOFF COOLED BEAM SUPPLY INLET,ZONEHVAC:AIRDISTRIBUTIONUNIT,NEOFF COOLED BEAM ADU,Outlet,1
 Parent Node Connection,DOAS SUPPLY SIDE INLET,AIRLOOPHVAC,DOAS,Inlet,1
 Parent Node Connection,DOAS DEMAND SIDE OUTLET,AIRLOOPHVAC,DOAS,Outlet,1
 Parent Node Connection,DOAS DEMAND SIDE INLET 1,AIRLOOPHVAC,DOAS,Inlet,1
 Parent Node Connection,DOAS SUPPLY SIDE OUTLET 1,AIRLOOPHVAC,DOAS,Outlet,1
 Parent Node Connection,DOAS AHU SUPPLY FAN OUTLET,COILSYSTEM:COOLING:DX,DOAS AHU UNITARY COOLING COIL,Inlet,1
 Parent Node Connection,DOAS AHU UNITARY COOLING COIL DX COOLING COIL AIR OUTLET NODE,COILSYSTEM:COOLING:DX,DOAS AHU UNITARY COOLING COIL,Outlet,1
 Parent Node Connection,DOAS SUPPLY SIDE OUTLET 1,COILSYSTEM:COOLING:DX,DOAS AHU UNITARY COOLING COIL,Sensor,1
 Parent Node Connection,DOAS AHU UNITARY COOLING COIL DX COOLING COIL AIR OUTLET NODE,DEHUMIDIFIER:DESICCANT:SYSTEM,DOAS AHU DESICCANT DEHUMIDIFIER,Inlet,1
 Parent Node Connection,DOAS SUPPLY SIDE OUTLET 1,DEHUMIDIFIER:DESICCANT:SYSTEM,DOAS AHU DESICCANT DEHUMIDIFIER,Outlet,1
 Parent Node Connection,DOAS DESICCANT REGEN AIR RELIEF OUTLET,DEHUMIDIFIER:DESICCANT:SYSTEM,DOAS AHU DESICCANT DEHUMIDIFIER,Outlet,1
 Parent Node Connection,DOAS DESICCANT REGEN OUTDOOR AIR INLET,DEHUMIDIFIER:DESICCANT:SYSTEM,DOAS AHU DESICCANT DEHUMIDIFIER,Inlet,1
! ===============================================================
! <#Non-Parent Node Connections>,<Number of Non-Parent Node Connections>
 #Non-Parent Node Connections,239
! <Non-Parent Node Connection>,<Node Name>,<Node ObjectType>,<Node ObjectName>,<Node ConnectionType>,<Node FluidStream>
 Non-Parent Node Connection,DOAS DESICCANT REGEN OUTDOOR AIR INLET,OUTDOORAIR:NODELIST,OutdoorAir:NodeList,OutdoorAir,1
 Non-Parent Node Connection,DOAS AHU OUTDOOR AIR INLET,OUTDOORAIR:NODELIST,OutdoorAir:NodeList,OutdoorAir,2
 Non-Parent Node Connection,SEOFF FAN COIL UNIT OUTDOOR AIR NODE NAME,OUTDOORAIR:NODELIST,OutdoorAir:NodeList,OutdoorAir,3
 Non-Parent Node Connection,SWOFF FAN COIL UNIT OUTDOOR AIR NODE NAME,OUTDOORAIR:NODELIST,OutdoorAir:NodeList,OutdoorAir,4
 Non-Parent Node Connection,DOAS SUPPLY SIDE OUTLET 1,SETPOINTMANAGER:SCHEDULED,AIR LOOP SETPOINT MANAGER,Setpoint,1
 Non-Parent Node Connection,TEMPHWLOOP SUPPLY SIDE OUTLET,SETPOINTMANAGER:SCHEDULED,HW LOOP SETPOINT MANAGER,Setpoint,1
 Non-Parent Node Connection,TEMPCHWLOOP SUPPLY SIDE OUTLET,SETPOINTMANAGER:SCHEDULED,CHW LOOP SETPOINT MANAGER,Setpoint,1
 Non-Parent Node Connection,DOAS SUPPLY SIDE OUTLET 1,SETPOINTMANAGER:SCHEDULED,DEHUMIDIFIER SETPOINT MANAGER,Setpoint,1
 Non-Parent Node Connection,DOAS SUPPLY SIDE OUTLET 1,SETPOINTMANAGER:MIXEDAIR,DOAS AHU  OUTSIDE AIR SYSTEM MIXED AIR MANAGER,Sensor,1
 Non-Parent Node Connection,DOAS AHU MIXED AIR OUTLET,SETPOINTMANAGER:MIXEDAIR,DOAS AHU  OUTSIDE AIR SYSTEM MIXED AIR MANAGER,Sensor,1
 Non-Parent Node Connection,DOAS AHU SUPPLY FAN OUTLET,SETPOINTMANAGER:MIXEDAIR,DOAS AHU  OUTSIDE AIR SYSTEM MIXED AIR MANAGER,Sensor,1
 Non-Parent Node Connection,DOAS AHU MIXED AIR OUTLET,SETPOINTMANAGER:MIXEDAIR,DOAS AHU  OUTSIDE AIR SYSTEM MIXED AIR MANAGER,Setpoint,1
 Non-Parent Node Connection,TEMPHWLOOP DEMAND SIDE INLET BRANCH PIPE OUTLET,CONNECTOR:SPLITTER,TEMPHWLOOP DEMAND SPLITTER,Inlet,1
 Non-Parent Node Connection,TEMPHWLOOP DEMAND SIDE BYPASS PIPE INLET NODE,CONNECTOR:SPLITTER,TEMPHWLOOP DEMAND SPLITTER,Outlet,1
 Non-Parent Node Connection,NEOFF MULLION HOT WATER INLET NODE,CONNECTOR:SPLITTER,TEMPHWLOOP DEMAND SPLITTER,Outlet,1
 Non-Parent Node Connection,NWOFF MULLION HOT WATER INLET NODE,CONNECTOR:SPLITTER,TEMPHWLOOP DEMAND SPLITTER,Outlet,1
 Non-Parent Node Connection,LARGECONF MULLION HOT WATER INLET NODE,CONNECTOR:SPLITTER,TEMPHWLOOP DEMAND SPLITTER,Outlet,1
 Non-Parent Node Connection,CENTRAL MULLION HOT WATER INLET NODE,CONNECTOR:SPLITTER,TEMPHWLOOP DEMAND SPLITTER,Outlet,1
 Non-Parent Node Connection,SEOFF MULLION HOT WATER INLET NODE,CONNECTOR:SPLITTER,TEMPHWLOOP DEMAND SPLITTER,Outlet,1
 Non-Parent Node Connection,SWOFF MULLION HOT WATER INLET NODE,CONNECTOR:SPLITTER,TEMPHWLOOP DEMAND SPLITTER,Outlet,1
 Non-Parent Node Connection,SEOFF FAN COIL UNIT HEATING COIL WATER INLET NODE,CONNECTOR:SPLITTER,TEMPHWLOOP DEMAND SPLITTER,Outlet,1
 Non-Parent Node Connection,SWOFF FAN COIL UNIT HEATING COIL WATER INLET NODE,CONNECTOR:SPLITTER,TEMPHWLOOP DEMAND SPLITTER,Outlet,1
 Non-Parent Node Connection,NEOFF CHILLED CEILING HW WATER INLET NODE,CONNECTOR:SPLITTER,TEMPHWLOOP DEMAND SPLITTER,Outlet,1
[...]
 Non-Parent Node Connection,DOAS ZONE SPLITTER OUTLET NODE SEOFF,ZONEHVAC:EQUIPMENTCONNECTIONS,SEOFF,ZoneInlet,1
 Non-Parent Node Connection,SEOFF FAN COIL UNIT SUPPLY INLET,ZONEHVAC:EQUIPMENTCONNECTIONS,SEOFF,ZoneInlet,1
 Non-Parent Node Connection,SEOFF FAN COIL UNIT RETURN,ZONEHVAC:EQUIPMENTCONNECTIONS,SEOFF,ZoneExhaust,1
 Non-Parent Node Connection,SWOFF ZONE AIR NODE,ZONEHVAC:EQUIPMENTCONNECTIONS,SWOFF,ZoneNode,1
 Non-Parent Node Connection,DOAS ZONE MIXER INLET NODE SWOFF,ZONEHVAC:EQUIPMENTCONNECTIONS,SWOFF,ZoneReturn,1
 Non-Parent Node Connection,SWOFF FAN COIL UNIT SUPPLY INLET,ZONEHVAC:EQUIPMENTCONNECTIONS,SWOFF,ZoneInlet,1
 Non-Parent Node Connection,DOAS ZONE SPLITTER OUTLET NODE SWOFF,ZONEHVAC:EQUIPMENTCONNECTIONS,SWOFF,ZoneInlet,1
 Non-Parent Node Connection,SWOFF FAN COIL UNIT RETURN,ZONEHVAC:EQUIPMENTCONNECTIONS,SWOFF,ZoneExhaust,1
 Non-Parent Node Connection,NEOFF ZONE AIR NODE,ZONEHVAC:EQUIPMENTCONNECTIONS,NEOFF,ZoneNode,1
 Non-Parent Node Connection,DOAS ZONE MIXER INLET NODE NEOFF,ZONEHVAC:EQUIPMENTCONNECTIONS,NEOFF,ZoneReturn,1
 Non-Parent Node Connection,NEOFF COOLED BEAM SUPPLY INLET,ZONEHVAC:EQUIPMENTCONNECTIONS,NEOFF,ZoneInlet,1
 Non-Parent Node Connection,NWOFF ZONE AIR NODE,ZONEHVAC:EQUIPMENTCONNECTIONS,NWOFF,ZoneNode,1
 Non-Parent Node Connection,NWOFF RETURN OUTLET,ZONEHVAC:EQUIPMENTCONNECTIONS,NWOFF,ZoneReturn,1
 Non-Parent Node Connection,LARGECONF ZONE AIR NODE,ZONEHVAC:EQUIPMENTCONNECTIONS,LARGECONF,ZoneNode,1
 Non-Parent Node Connection,DOAS ZONE MIXER INLET NODE LARGECONF,ZONEHVAC:EQUIPMENTCONNECTIONS,LARGECONF,ZoneReturn,1
 Non-Parent Node Connection,LARGECONF COOLED BEAM SUPPLY INLET,ZONEHVAC:EQUIPMENTCONNECTIONS,LARGECONF,ZoneInlet,1
 Non-Parent Node Connection,CENTRAL ZONE AIR NODE,ZONEHVAC:EQUIPMENTCONNECTIONS,CENTRAL,ZoneNode,1
 Non-Parent Node Connection,CENTRAL RETURN OUTLET,ZONEHVAC:EQUIPMENTCONNECTIONS,CENTRAL,ZoneReturn,1
 Non-Parent Node Connection,DOAS DEMAND SIDE INLET 1,AIRLOOPHVAC:ZONESPLITTER,DOAS ZONE SPLITTER,Inlet,1
 Non-Parent Node Connection,DOAS ZONE SPLITTER OUTLET NODE SEOFF,AIRLOOPHVAC:ZONESPLITTER,DOAS ZONE SPLITTER,Outlet,1
 Non-Parent Node Connection,DOAS ZONE SPLITTER OUTLET NODE SWOFF,AIRLOOPHVAC:ZONESPLITTER,DOAS ZONE SPLITTER,Outlet,1
 Non-Parent Node Connection,DOAS ZONE SPLITTER OUTLET NODE LARGECONF,AIRLOOPHVAC:ZONESPLITTER,DOAS ZONE SPLITTER,Outlet,1
 Non-Parent Node Connection,DOAS ZONE SPLITTER OUTLET NODE NEOFF,AIRLOOPHVAC:ZONESPLITTER,DOAS ZONE SPLITTER,Outlet,1
 Non-Parent Node Connection,NEOFF MULLION HOT WATER INLET NODE,ZONEHVAC:LOWTEMPERATURERADIANT:CONSTANTFLOW,NEOFF MULLION,Inlet,1
 Non-Parent Node Connection,NEOFF MULLION HOT WATER OUTLET NODE,ZONEHVAC:LOWTEMPERATURERADIANT:CONSTANTFLOW,NEOFF MULLION,Outlet,1
 Non-Parent Node Connection,NEOFF MULLION COLD WATER INLET NODE,ZONEHVAC:LOWTEMPERATURERADIANT:CONSTANTFLOW,NEOFF MULLION,Inlet,2
 Non-Parent Node Connection,NEOFF MULLION COLD WATER OUTLET NODE,ZONEHVAC:LOWTEMPERATURERADIANT:CONSTANTFLOW,NEOFF MULLION,Outlet,2
 Non-Parent Node Connection,NWOFF MULLION HOT WATER INLET NODE,ZONEHVAC:LOWTEMPERATURERADIANT:CONSTANTFLOW,NWOFF MULLION,Inlet,1
 Non-Parent Node Connection,NWOFF MULLION HOT WATER OUTLET NODE,ZONEHVAC:LOWTEMPERATURERADIANT:CONSTANTFLOW,NWOFF MULLION,Outlet,1
 Non-Parent Node Connection,NWOFF MULLION COLD WATER INLET NODE,ZONEHVAC:LOWTEMPERATURERADIANT:CONSTANTFLOW,NWOFF MULLION,Inlet,2
 Non-Parent Node Connection,NWOFF MULLION COLD WATER OUTLET NODE,ZONEHVAC:LOWTEMPERATURERADIANT:CONSTANTFLOW,NWOFF MULLION,Outlet,2
 Non-Parent Node Connection,LARGECONF MULLION HOT WATER INLET NODE,ZONEHVAC:LOWTEMPERATURERADIANT:CONSTANTFLOW,LARGECONF MULLION,Inlet,1
 Non-Parent Node Connection,LARGECONF MULLION HOT WATER OUTLET NODE,ZONEHVAC:LOWTEMPERATURERADIANT:CONSTANTFLOW,LARGECONF MULLION,Outlet,1
 Non-Parent Node Connection,LARGECONF MULLION COLD WATER INLET NODE,ZONEHVAC:LOWTEMPERATURERADIANT:CONSTANTFLOW,LARGECONF MULLION,Inlet,2
 Non-Parent Node Connection,LARGECONF MULLION COLD WATER OUTLET NODE,ZONEHVAC:LOWTEMPERATURERADIANT:CONSTANTFLOW,LARGECONF MULLION,Outlet,2
 Non-Parent Node Connection,CENTRAL MULLION HOT WATER INLET NODE,ZONEHVAC:LOWTEMPERATURERADIANT:CONSTANTFLOW,CENTRAL MULLION,Inlet,1
 Non-Parent Node Connection,CENTRAL MULLION HOT WATER OUTLET NODE,ZONEHVAC:LOWTEMPERATURERADIANT:CONSTANTFLOW,CENTRAL MULLION,Outlet,1
 Non-Parent Node Connection,CENTRAL MULLION COLD WATER INLET NODE,ZONEHVAC:LOWTEMPERATURERADIANT:CONSTANTFLOW,CENTRAL MULLION,Inlet,2
 Non-Parent Node Connection,CENTRAL MULLION COLD WATER OUTLET NODE,ZONEHVAC:LOWTEMPERATURERADIANT:CONSTANTFLOW,CENTRAL MULLION,Outlet,2
 Non-Parent Node Connection,SEOFF MULLION HOT WATER INLET NODE,ZONEHVAC:LOWTEMPERATURERADIANT:CONSTANTFLOW,SEOFF MULLION,Inlet,1
 Non-Parent Node Connection,SEOFF MULLION HOT WATER OUTLET NODE,ZONEHVAC:LOWTEMPERATURERADIANT:CONSTANTFLOW,SEOFF MULLION,Outlet,1
 Non-Parent Node Connection,SEOFF MULLION COLD WATER INLET NODE,ZONEHVAC:LOWTEMPERATURERADIANT:CONSTANTFLOW,SEOFF MULLION,Inlet,2
 Non-Parent Node Connection,SEOFF MULLION COLD WATER OUTLET NODE,ZONEHVAC:LOWTEMPERATURERADIANT:CONSTANTFLOW,SEOFF MULLION,Outlet,2
 Non-Parent Node Connection,SWOFF MULLION HOT WATER INLET NODE,ZONEHVAC:LOWTEMPERATURERADIANT:CONSTANTFLOW,SWOFF MULLION,Inlet,1
 Non-Parent Node Connection,SWOFF MULLION HOT WATER OUTLET NODE,ZONEHVAC:LOWTEMPERATURERADIANT:CONSTANTFLOW,SWOFF MULLION,Outlet,1
 Non-Parent Node Connection,SWOFF MULLION COLD WATER INLET NODE,ZONEHVAC:LOWTEMPERATURERADIANT:CONSTANTFLOW,SWOFF MULLION,Inlet,2
 Non-Parent Node Connection,SWOFF MULLION COLD WATER OUTLET NODE,ZONEHVAC:LOWTEMPERATURERADIANT:CONSTANTFLOW,SWOFF MULLION,Outlet,2
 Non-Parent Node Connection,NEOFF CHILLED CEILING HW WATER INLET NODE,ZONEHVAC:LOWTEMPERATURERADIANT:CONSTANTFLOW,NEOFF CHILLED CEILING,Inlet,1
 Non-Parent Node Connection,NEOFF CHILLED CEILING HW WATER OUTLET NODE,ZONEHVAC:LOWTEMPERATURERADIANT:CONSTANTFLOW,NEOFF CHILLED CEILING,Outlet,1
 Non-Parent Node Connection,NEOFF CHILLED CEILING CHW WATER INLET NODE,ZONEHVAC:LOWTEMPERATURERADIANT:CONSTANTFLOW,NEOFF CHILLED CEILING,Inlet,2
 Non-Parent Node Connection,NEOFF CHILLED CEILING CHW WATER OUTLET NODE,ZONEHVAC:LOWTEMPERATURERADIANT:CONSTANTFLOW,NEOFF CHILLED CEILING,Outlet,2
 Non-Parent Node Connection,NWOFF CHILLED CEILING HW WATER INLET NODE,ZONEHVAC:LOWTEMPERATURERADIANT:CONSTANTFLOW,NWOFF CHILLED CEILING,Inlet,1
 Non-Parent Node Connection,NWOFF CHILLED CEILING HW WATER OUTLET NODE,ZONEHVAC:LOWTEMPERATURERADIANT:CONSTANTFLOW,NWOFF CHILLED CEILING,Outlet,1
 Non-Parent Node Connection,NWOFF CHILLED CEILING CHW WATER INLET NODE,ZONEHVAC:LOWTEMPERATURERADIANT:CONSTANTFLOW,NWOFF CHILLED CEILING,Inlet,2
 Non-Parent Node Connection,NWOFF CHILLED CEILING CHW WATER OUTLET NODE,ZONEHVAC:LOWTEMPERATURERADIANT:CONSTANTFLOW,NWOFF CHILLED CEILING,Outlet,2
 Non-Parent Node Connection,CENTRAL CHILLED CEILING HW WATER INLET NODE,ZONEHVAC:LOWTEMPERATURERADIANT:CONSTANTFLOW,CENTRAL CHILLED CEILING,Inlet,1
 Non-Parent Node Connection,CENTRAL CHILLED CEILING HW WATER OUTLET NODE,ZONEHVAC:LOWTEMPERATURERADIANT:CONSTANTFLOW,CENTRAL CHILLED CEILING,Outlet,1
 Non-Parent Node Connection,CENTRAL CHILLED CEILING CHW WATER INLET NODE,ZONEHVAC:LOWTEMPERATURERADIANT:CONSTANTFLOW,CENTRAL CHILLED CEILING,Inlet,2
 Non-Parent Node Connection,CENTRAL CHILLED CEILING CHW WATER OUTLET NODE,ZONEHVAC:LOWTEMPERATURERADIANT:CONSTANTFLOW,CENTRAL CHILLED CEILING,Outlet,2
 Non-Parent Node Connection,DOAS ZONE SPLITTER OUTLET NODE SEOFF,AIRTERMINAL:SINGLEDUCT:UNCONTROLLED,SEOFF DIRECT AIR,Outlet,1
 Non-Parent Node Connection,DOAS ZONE SPLITTER OUTLET NODE SWOFF,AIRTERMINAL:SINGLEDUCT:UNCONTROLLED,SWOFF DIRECT AIR,Outlet,1
 Non-Parent Node Connection,DOAS AHU MIXED AIR OUTLET,OUTDOORAIR:MIXER,DOAS AHU  OUTDOOR AIR MIXER,Outlet,1
 Non-Parent Node Connection,DOAS AHU HEAT RECOVERY SUPPLY OUTLET,OUTDOORAIR:MIXER,DOAS AHU  OUTDOOR AIR MIXER,Inlet,1
 Non-Parent Node Connection,DOAS AHU RELIEF AIR OUTLET,OUTDOORAIR:MIXER,DOAS AHU  OUTDOOR AIR MIXER,ReliefAir,1
 Non-Parent Node Connection,DOAS AHU EXTRACT FAN AIR OUTLET NODE,OUTDOORAIR:MIXER,DOAS AHU  OUTDOOR AIR MIXER,Inlet,1
 Non-Parent Node Connection,SEOFF FAN COIL UNIT MIXED AIR OUTLET,OUTDOORAIR:MIXER,SEOFF FAN COIL UNIT OUTDOOR AIR MIXER,Outlet,1
 Non-Parent Node Connection,SEOFF FAN COIL UNIT OUTDOOR AIR NODE NAME,OUTDOORAIR:MIXER,SEOFF FAN COIL UNIT OUTDOOR AIR MIXER,Inlet,1
 Non-Parent Node Connection,SEOFF FAN COIL UNIT AIR RELIEF NODE NAME,OUTDOORAIR:MIXER,SEOFF FAN COIL UNIT OUTDOOR AIR MIXER,ReliefAir,1
 Non-Parent Node Connection,SEOFF FAN COIL UNIT RETURN,OUTDOORAIR:MIXER,SEOFF FAN COIL UNIT OUTDOOR AIR MIXER,Inlet,1
 Non-Parent Node Connection,SWOFF FAN COIL UNIT MIXED AIR OUTLET,OUTDOORAIR:MIXER,SWOFF FAN COIL UNIT OUTDOOR AIR MIXER,Outlet,1
 Non-Parent Node Connection,SWOFF FAN COIL UNIT OUTDOOR AIR NODE NAME,OUTDOORAIR:MIXER,SWOFF FAN COIL UNIT OUTDOOR AIR MIXER,Inlet,1
 Non-Parent Node Connection,SWOFF FAN COIL UNIT AIR RELIEF NODE NAME,OUTDOORAIR:MIXER,SWOFF FAN COIL UNIT OUTDOOR AIR MIXER,ReliefAir,1
 Non-Parent Node Connection,SWOFF FAN COIL UNIT RETURN,OUTDOORAIR:MIXER,SWOFF FAN COIL UNIT OUTDOOR AIR MIXER,Inlet,1
 Non-Parent Node Connection,SEOFF FAN COIL UNIT HEATING COIL WATER INLET NODE,COIL:HEATING:WATER,SEOFF FAN COIL UNIT HEATING COIL,Inlet,2
 Non-Parent Node Connection,SEOFF FAN COIL UNIT HEATING COIL WATER OUTLET NODE,COIL:HEATING:WATER,SEOFF FAN COIL UNIT HEATING COIL,Outlet,2
 Non-Parent Node Connection,SEOFF FAN COIL UNIT COOLING COIL OUTLET,COIL:HEATING:WATER,SEOFF FAN COIL UNIT HEATING COIL,Inlet,1
 Non-Parent Node Connection,SEOFF FAN COIL UNIT SUPPLY INLET,COIL:HEATING:WATER,SEOFF FAN COIL UNIT HEATING COIL,Outlet,1
 Non-Parent Node Connection,SWOFF FAN COIL UNIT HEATING COIL WATER INLET NODE,COIL:HEATING:WATER,SWOFF FAN COIL UNIT HEATING COIL,Inlet,2
 Non-Parent Node Connection,SWOFF FAN COIL UNIT HEATING COIL WATER OUTLET NODE,COIL:HEATING:WATER,SWOFF FAN COIL UNIT HEATING COIL,Outlet,2
 Non-Parent Node Connection,SWOFF FAN COIL UNIT COOLING COIL OUTLET,COIL:HEATING:WATER,SWOFF FAN COIL UNIT HEATING COIL,Inlet,1
 Non-Parent Node Connection,SWOFF FAN COIL UNIT SUPPLY INLET,COIL:HEATING:WATER,SWOFF FAN COIL UNIT HEATING COIL,Outlet,1
 Non-Parent Node Connection,SEOFF FAN COIL UNIT COOLING COIL WATER INLET NODE,COIL:COOLING:WATER,SEOFF FAN COIL UNIT COOLING COIL,Inlet,2
 Non-Parent Node Connection,SEOFF FAN COIL UNIT COOLING COIL WATER OUTLET NODE,COIL:COOLING:WATER,SEOFF FAN COIL UNIT COOLING COIL,Outlet,2
 Non-Parent Node Connection,SEOFF FAN COIL UNIT SUPPLY FAN OUTLET,COIL:COOLING:WATER,SEOFF FAN COIL UNIT COOLING COIL,Inlet,1
 Non-Parent Node Connection,SEOFF FAN COIL UNIT COOLING COIL OUTLET,COIL:COOLING:WATER,SEOFF FAN COIL UNIT COOLING COIL,Outlet,1
 Non-Parent Node Connection,SWOFF FAN COIL UNIT COOLING COIL WATER INLET NODE,COIL:COOLING:WATER,SWOFF FAN COIL UNIT COOLING COIL,Inlet,2
 Non-Parent Node Connection,SWOFF FAN COIL UNIT COOLING COIL WATER OUTLET NODE,COIL:COOLING:WATER,SWOFF FAN COIL UNIT COOLING COIL,Outlet,2
 Non-Parent Node Connection,SWOFF FAN COIL UNIT SUPPLY FAN OUTLET,COIL:COOLING:WATER,SWOFF FAN COIL UNIT COOLING COIL,Inlet,1
 Non-Parent Node Connection,SWOFF FAN COIL UNIT COOLING COIL OUTLET,COIL:COOLING:WATER,SWOFF FAN COIL UNIT COOLING COIL,Outlet,1
 Non-Parent Node Connection,DOAS SUPPLY SIDE INLET,FAN:CONSTANTVOLUME,DOAS AHU EXTRACT FAN,Inlet,1
 Non-Parent Node Connection,DOAS AHU EXTRACT FAN AIR OUTLET NODE,FAN:CONSTANTVOLUME,DOAS AHU EXTRACT FAN,Outlet,1
 Non-Parent Node Connection,DOAS AHU MIXED AIR OUTLET,FAN:CONSTANTVOLUME,DOAS AHU SUPPLY FAN,Inlet,1
 Non-Parent Node Connection,DOAS AHU SUPPLY FAN OUTLET,FAN:CONSTANTVOLUME,DOAS AHU SUPPLY FAN,Outlet,1
 Non-Parent Node Connection,DOAS DESICCANT REGEN WHEEL AIR OUTLET,FAN:CONSTANTVOLUME,DESICCANT REGEN FAN,Inlet,1
 Non-Parent Node Connection,DOAS DESICCANT REGEN AIR RELIEF OUTLET,FAN:CONSTANTVOLUME,DESICCANT REGEN FAN,Outlet,1
 Non-Parent Node Connection,SEOFF FAN COIL UNIT MIXED AIR OUTLET,FAN:ONOFF,SEOFF FAN COIL UNIT SUPPLY FAN,Inlet,1
 Non-Parent Node Connection,SEOFF FAN COIL UNIT SUPPLY FAN OUTLET,FAN:ONOFF,SEOFF FAN COIL UNIT SUPPLY FAN,Outlet,1
 Non-Parent Node Connection,SWOFF FAN COIL UNIT MIXED AIR OUTLET,FAN:ONOFF,SWOFF FAN COIL UNIT SUPPLY FAN,Inlet,1
 Non-Parent Node Connection,SWOFF FAN COIL UNIT SUPPLY FAN OUTLET,FAN:ONOFF,SWOFF FAN COIL UNIT SUPPLY FAN,Outlet,1
 Non-Parent Node Connection,DOAS ZONE SPLITTER OUTLET NODE LARGECONF,AIRTERMINAL:SINGLEDUCT:CONSTANTVOLUME:COOLEDBEAM,LARGECONF COOLED BEAM,Inlet,1
 Non-Parent Node Connection,LARGECONF COOLED BEAM SUPPLY INLET,AIRTERMINAL:SINGLEDUCT:CONSTANTVOLUME:COOLEDBEAM,LARGECONF COOLED BEAM,Outlet,1
 Non-Parent Node Connection,LARGECONF COOLED BEAM CHW INLET NODE,AIRTERMINAL:SINGLEDUCT:CONSTANTVOLUME:COOLEDBEAM,LARGECONF COOLED BEAM,Inlet,2
 Non-Parent Node Connection,LARGECONF COOLED BEAM CHW OUTLET NODE,AIRTERMINAL:SINGLEDUCT:CONSTANTVOLUME:COOLEDBEAM,LARGECONF COOLED BEAM,Outlet,2
 Non-Parent Node Connection,DOAS ZONE SPLITTER OUTLET NODE NEOFF,AIRTERMINAL:SINGLEDUCT:CONSTANTVOLUME:COOLEDBEAM,NEOFF COOLED BEAM,Inlet,1
 Non-Parent Node Connection,NEOFF COOLED BEAM SUPPLY INLET,AIRTERMINAL:SINGLEDUCT:CONSTANTVOLUME:COOLEDBEAM,NEOFF COOLED BEAM,Outlet,1
 Non-Parent Node Connection,NEOFF COOLED BEAM CHW INLET NODE,AIRTERMINAL:SINGLEDUCT:CONSTANTVOLUME:COOLEDBEAM,NEOFF COOLED BEAM,Inlet,2
 Non-Parent Node Connection,NEOFF COOLED BEAM CHW OUTLET NODE,AIRTERMINAL:SINGLEDUCT:CONSTANTVOLUME:COOLEDBEAM,NEOFF COOLED BEAM,Outlet,2
 Non-Parent Node Connection,DOAS DEMAND SIDE OUTLET,AIRLOOPHVAC:ZONEMIXER,DOAS ZONE MIXER,Outlet,1
 Non-Parent Node Connection,DOAS ZONE MIXER INLET NODE LARGECONF,AIRLOOPHVAC:ZONEMIXER,DOAS ZONE MIXER,Inlet,1
 Non-Parent Node Connection,DOAS ZONE MIXER INLET NODE NEOFF,AIRLOOPHVAC:ZONEMIXER,DOAS ZONE MIXER,Inlet,1
 Non-Parent Node Connection,DOAS ZONE MIXER INLET NODE SEOFF,AIRLOOPHVAC:ZONEMIXER,DOAS ZONE MIXER,Inlet,1
 Non-Parent Node Connection,DOAS ZONE MIXER INLET NODE SWOFF,AIRLOOPHVAC:ZONEMIXER,DOAS ZONE MIXER,Inlet,1
 Non-Parent Node Connection,DOAS AHU MIXED AIR OUTLET,CONTROLLER:OUTDOORAIR,DOAS AHU  OUTDOOR AIR CONTROLLER,Sensor,1
 Non-Parent Node Connection,DOAS AHU OUTDOOR AIR INLET,CONTROLLER:OUTDOORAIR,DOAS AHU  OUTDOOR AIR CONTROLLER,Actuator,1
 Non-Parent Node Connection,DOAS AHU RELIEF AIR OUTLET,CONTROLLER:OUTDOORAIR,DOAS AHU  OUTDOOR AIR CONTROLLER,Actuator,1
 Non-Parent Node Connection,DOAS AHU EXTRACT FAN AIR OUTLET NODE,CONTROLLER:OUTDOORAIR,DOAS AHU  OUTDOOR AIR CONTROLLER,Sensor,1
 Non-Parent Node Connection,DOAS AHU OUTDOOR AIR INLET,HEATEXCHANGER:AIRTOAIR:SENSIBLEANDLATENT,DOAS AHU  HEAT RECOVERY DEVICE,Inlet,1
 Non-Parent Node Connection,DOAS AHU HEAT RECOVERY SUPPLY OUTLET,HEATEXCHANGER:AIRTOAIR:SENSIBLEANDLATENT,DOAS AHU  HEAT RECOVERY DEVICE,Outlet,1
 Non-Parent Node Connection,DOAS AHU RELIEF AIR OUTLET,HEATEXCHANGER:AIRTOAIR:SENSIBLEANDLATENT,DOAS AHU  HEAT RECOVERY DEVICE,Inlet,2
 Non-Parent Node Connection,DOAS AHU HEAT RECOVERY RELIEF OUTLET,HEATEXCHANGER:AIRTOAIR:SENSIBLEANDLATENT,DOAS AHU  HEAT RECOVERY DEVICE,Outlet,2
 Non-Parent Node Connection,DOAS DESICCANT REGEN BURNER AIR OUTLET,HEATEXCHANGER:DESICCANT:BALANCEDFLOW,DESICCANT HEAT EXCHANGER 1,Inlet,1
 Non-Parent Node Connection,DOAS DESICCANT REGEN WHEEL AIR OUTLET,HEATEXCHANGER:DESICCANT:BALANCEDFLOW,DESICCANT HEAT EXCHANGER 1,Outlet,1
 Non-Parent Node Connection,DOAS AHU UNITARY COOLING COIL DX COOLING COIL AIR OUTLET NODE,HEATEXCHANGER:DESICCANT:BALANCEDFLOW,DESICCANT HEAT EXCHANGER 1,Inlet,2
 Non-Parent Node Connection,DOAS SUPPLY SIDE OUTLET 1,HEATEXCHANGER:DESICCANT:BALANCEDFLOW,DESICCANT HEAT EXCHANGER 1,Outlet,2
 Non-Parent Node Connection,DOAS AHU SUPPLY FAN OUTLET,COIL:COOLING:DX:SINGLESPEED,DOAS AHU UNITARY COOLING COIL DX COOLING COIL,Inlet,1
 Non-Parent Node Connection,DOAS AHU UNITARY COOLING COIL DX COOLING COIL AIR OUTLET NODE,COIL:COOLING:DX:SINGLESPEED,DOAS AHU UNITARY COOLING COIL DX COOLING COIL,Outlet,1
 Non-Parent Node Connection,DOAS SUPPLY SIDE OUTLET 1,DEHUMIDIFIER:DESICCANT:SYSTEM,DOAS AHU DESICCANT DEHUMIDIFIER,Sensor,1
 Non-Parent Node Connection,DOAS DESICCANT REGEN OUTDOOR AIR INLET,COIL:HEATING:GAS,DOAS DESICCANT REGEN BURNER COIL,Inlet,1
 Non-Parent Node Connection,DOAS DESICCANT REGEN BURNER AIR OUTLET,COIL:HEATING:GAS,DOAS DESICCANT REGEN BURNER COIL,Outlet,1
 Non-Parent Node Connection,TEMPHWLOOP DEMAND SIDE INLET,PIPE:ADIABATIC,TEMPHWLOOP DEMAND SIDE INLET BRANCH PIPE,Inlet,1
 Non-Parent Node Connection,TEMPHWLOOP DEMAND SIDE INLET BRANCH PIPE OUTLET,PIPE:ADIABATIC,TEMPHWLOOP DEMAND SIDE INLET BRANCH PIPE,Outlet,1
 Non-Parent Node Connection,TEMPHWLOOP DEMAND SIDE BYPASS PIPE INLET NODE,PIPE:ADIABATIC,TEMPHWLOOP DEMAND SIDE BYPASS PIPE,Inlet,1
 Non-Parent Node Connection,TEMPHWLOOP DEMAND SIDE BYPASS PIPE OUTLET NODE,PIPE:ADIABATIC,TEMPHWLOOP DEMAND SIDE BYPASS PIPE,Outlet,1
 Non-Parent Node Connection,TEMPHWLOOP DEMAND SIDE OUTLET BRANCH PIPE INLET,PIPE:ADIABATIC,TEMPHWLOOP DEMAND SIDE OUTLET BRANCH PIPE,Inlet,1
 Non-Parent Node Connection,TEMPHWLOOP DEMAND SIDE OUTLET,PIPE:ADIABATIC,TEMPHWLOOP DEMAND SIDE OUTLET BRANCH PIPE,Outlet,1
 Non-Parent Node Connection,TEMPHWLOOP SUPPLY SIDE BYPASS PIPE INLET NODE,PIPE:ADIABATIC,TEMPHWLOOP SUPPLY SIDE BYPASS PIPE,Inlet,1
 Non-Parent Node Connection,TEMPHWLOOP SUPPLY SIDE BYPASS PIPE OUTLET NODE,PIPE:ADIABATIC,TEMPHWLOOP SUPPLY SIDE BYPASS PIPE,Outlet,1
 Non-Parent Node Connection,TEMPHWLOOP SUPPLY SIDE OUTLET BRANCH PIPE INLET,PIPE:ADIABATIC,TEMPHWLOOP SUPPLY SIDE OUTLET BRANCH PIPE,Inlet,1
 Non-Parent Node Connection,TEMPHWLOOP SUPPLY SIDE OUTLET,PIPE:ADIABATIC,TEMPHWLOOP SUPPLY SIDE OUTLET BRANCH PIPE,Outlet,1
 Non-Parent Node Connection,TEMPCHWLOOP DEMAND SIDE INLET,PIPE:ADIABATIC,TEMPCHWLOOP DEMAND SIDE INLET BRANCH PIPE,Inlet,1
 Non-Parent Node Connection,TEMPCHWLOOP DEMAND SIDE INLET BRANCH PIPE OUTLET,PIPE:ADIABATIC,TEMPCHWLOOP DEMAND SIDE INLET BRANCH PIPE,Outlet,1
 Non-Parent Node Connection,TEMPCHWLOOP DEMAND SIDE BYPASS PIPE INLET NODE,PIPE:ADIABATIC,TEMPCHWLOOP DEMAND SIDE BYPASS PIPE,Inlet,1
 Non-Parent Node Connection,TEMPCHWLOOP DEMAND SIDE BYPASS PIPE OUTLET NODE,PIPE:ADIABATIC,TEMPCHWLOOP DEMAND SIDE BYPASS PIPE,Outlet,1
 Non-Parent Node Connection,TEMPCHWLOOP DEMAND SIDE OUTLET BRANCH PIPE INLET,PIPE:ADIABATIC,TEMPCHWLOOP DEMAND SIDE OUTLET BRANCH PIPE,Inlet,1
 Non-Parent Node Connection,TEMPCHWLOOP DEMAND SIDE OUTLET,PIPE:ADIABATIC,TEMPCHWLOOP DEMAND SIDE OUTLET BRANCH PIPE,Outlet,1
 Non-Parent Node Connection,TEMPCHWLOOP SUPPLY SIDE BYPASS PIPE INLET NODE,PIPE:ADIABATIC,TEMPCHWLOOP SUPPLY SIDE BYPASS PIPE,Inlet,1
 Non-Parent Node Connection,TEMPCHWLOOP SUPPLY SIDE BYPASS PIPE OUTLET NODE,PIPE:ADIABATIC,TEMPCHWLOOP SUPPLY SIDE BYPASS PIPE,Outlet,1
 Non-Parent Node Connection,TEMPCHWLOOP SUPPLY SIDE OUTLET BRANCH PIPE INLET,PIPE:ADIABATIC,TEMPCHWLOOP SUPPLY SIDE OUTLET BRANCH PIPE,Inlet,1
 Non-Parent Node Connection,TEMPCHWLOOP SUPPLY SIDE OUTLET,PIPE:ADIABATIC,TEMPCHWLOOP SUPPLY SIDE OUTLET BRANCH PIPE,Outlet,1
 Non-Parent Node Connection,CMU DISTRICTHEATING WATER INLET NODE,DISTRICTHEATING,CMU DISTRICTHEATING,Inlet,1
 Non-Parent Node Connection,CMU DISTRICTHEATING WATER OUTLET NODE,DISTRICTHEATING,CMU DISTRICTHEATING,Outlet,1
 Non-Parent Node Connection,CMU DISTRICTCOOLING CHW INLET NODE,DISTRICTCOOLING,CMU DISTRICTCOOLING,Inlet,1
 Non-Parent Node Connection,CMU DISTRICTCOOLING CHW OUTLET NODE,DISTRICTCOOLING,CMU DISTRICTCOOLING,Outlet,1
 Non-Parent Node Connection,TEMPHWLOOP SUPPLY SIDE INLET,PUMP:CONSTANTSPEED,TEMPHWLOOP SUPPLY PUMP,Inlet,1
 Non-Parent Node Connection,TEMPHWLOOP SUPPLY PUMP WATER OUTLET NODE,PUMP:CONSTANTSPEED,TEMPHWLOOP SUPPLY PUMP,Outlet,1
 Non-Parent Node Connection,TEMPCHWLOOP SUPPLY SIDE INLET,PUMP:CONSTANTSPEED,TEMPCHWLOOP SUPPLY PUMP,Inlet,1
 Non-Parent Node Connection,TEMPCHWLOOP SUPPLY PUMP WATER OUTLET NODE,PUMP:CONSTANTSPEED,TEMPCHWLOOP SUPPLY PUMP,Outlet,1
