Program Version,EnergyPlus, Version 8.3.0-6d97d074ea, YMD=2018.01.23 10:49
! <Version>, Version ID
 Version, 8.3.0.001
! <Timesteps per Hour>, #TimeSteps, Minutes per TimeStep {minutes}
 Timesteps per Hour, 12,  5
! <System Convergence Limits>, Minimum System TimeStep {minutes}, Max HVAC Iterations, Minimum Plant Iterations, Maximum Plant Iterations
 System Convergence Limits, 1, 25, 2, 8
! <Simulation Control>, Do Zone Sizing, Do System Sizing, Do Plant Sizing, Do Design Days, Do Weather Simulation, Do HVAC Sizing Simulation
 Simulation Control, No, No, No, No, Yes, No
! <Output Reporting Tolerances>, Tolerance for Time Heating Setpoint Not Met, Tolerance for Zone Cooling Setpoint Not Met Time
 Output Reporting Tolerances, 0.550, 0.550, 
! <Site:GroundTemperature:BuildingSurface>, Months From Jan to Dec {C}
 Site:GroundTemperature:BuildingSurface,  18.00,  18.00,  18.00,  18.00,  18.00,  18.00,  18.00,  18.00,  18.00,  18.00,  18.00,  18.00
! <Site:GroundTemperature:FCfactorMethod>, Months From Jan to Dec {C}
 Site:GroundTemperature:FCfactorMethod,   2.10,   1.21,   2.79,   5.27,  11.76,  16.77,  20.14,  21.17,  19.42,  15.53,  10.34,   5.52
! <Site:GroundTemperature:Shallow>, Months From Jan to Dec {C}
 Site:GroundTemperature:Shallow,  14.00,  14.00,  14.00,  14.00,  14.00,  14.00,  14.00,  14.00,  14.00,  14.00,  14.00,  14.00
! <Site:GroundTemperature:Deep>, Months From Jan to Dec {C}
 Site:GroundTemperature:Deep,  14.00,  14.00,  14.00,  14.00,  14.00,  14.00,  14.00,  14.00,  14.00,  14.00,  14.00,  14.00
! <Site:GroundReflectance>, Months From Jan to Dec {dimensionless}
 Site:GroundReflectance,  0.20,  0.20,  0.20,  0.20,  0.20,  0.20,  0.20,  0.20,  0.20,  0.20,  0.20,  0.20
! <Site:GroundReflectance:SnowModifier>, Normal, Daylighting {dimensionless}
 Site:GroundReflectance:SnowModifier,   2.000,   2.000
! <Site:GroundReflectance:Snow>, Months From Jan to Dec {dimensionless}
 Site:GroundReflectance:Snow,  0.40,  0.40,  0.40,  0.40,  0.40,  0.40,  0.40,  0.40,  0.40,  0.40,  0.40,  0.40
! <Site:GroundReflectance:Snow:Daylighting>, Months From Jan to Dec {dimensionless}
 Site:GroundReflectance:Snow:Daylighting,  0.40,  0.40,  0.40,  0.40,  0.40,  0.40,  0.40,  0.40,  0.40,  0.40,  0.40,  0.40
! <Environment:Weather Station>,Wind Sensor Height Above Ground {m},Wind Speed Profile Exponent {},Wind Speed Profile Boundary Layer Thickness {m},Air Temperature Sensor Height Above Ground {m},Wind Speed Modifier Coefficient [Internal],Temperature Modifier Coefficient [Internal]
Environment:Weather Station,10.000,0.140,270.000,1.500,1.586,9.750E-003
! <Site:Location>, Location Name, Latitude {N+/S- Deg}, Longitude {E+/W- Deg},  Time Zone Number {GMT+/-}, Elevation {m},  Standard Pressure at Elevation {Pa}, Standard RhoAir at Elevation
Site:Location,Pittsburgh Allegheny Co Ap PA USA TMY3 WMO#=725205,40.35,-79.92,-5.00,380.00,96842,1.1510
! <Building Information>, Building Name,North Axis {deg},Terrain,  Loads Convergence Tolerance Value,Temperature Convergence Tolerance Value,  Solar Distribution,Maximum Number of Warmup Days,Minimum Number of Warmup Days
 Building Information,Building,15.000,Suburbs,4.00000E-002,0.40000,FullExterior,25,6
! <Inside Convection Algorithm>, Algorithm {Simple | TARP | CeilingDiffuser | AdaptiveConvectionAlgorithm}
Inside Convection Algorithm,TARP
! <Outside Convection Algorithm>, Algorithm {SimpleCombined | TARP | MoWitt | DOE-2 | AdaptiveConvectionAlgorithm}
Outside Convection Algorithm,DOE-2
! <Sky Radiance Distribution>, Value {Anisotropic}
Sky Radiance Distribution,Anisotropic
! <Zone Air Solution Algorithm>, Value {ThirdOrderBackwardDifference | AnalyticalSolution | EulerMethod}
 Zone Air Solution Algorithm, ThirdOrderBackwardDifference
! <Zone Air Contaminant Balance Simulation>, Simulation {Yes/No}, Carbon Dioxide Concentration
 Zone Air Carbon Dioxide Balance Simulation, Yes,YES
! <Zone Air Contaminant Balance Simulation>, Simulation {Yes/No}, Generic Contaminant Concentration
 Zone Air Generic Contaminant Balance Simulation, No,N/A
! <Zone Air Mass Flow Balance Simulation>, Simulation {Yes/No}
 Zone Air Mass Flow Balance Simulation, No
! <Environment:Site Atmospheric Variation>,Wind Speed Profile Exponent {},Wind Speed Profile Boundary Layer Thickness {m},Air Temperature Gradient Coefficient {K/m}
Environment:Site Atmospheric Variation,0.220,370.000,6.500000E-003
! <SurfaceGeometry>,Starting Corner,Vertex Input Direction,Coordinate System,Daylight Reference Point Coordinate System,Rectangular (Simple) Surface Coordinate System
 Surface Geometry,LowerLeftCorner,Counterclockwise,RelativeCoordinateSystem,RelativeCoordinateSystem,RelativeToZoneOrigin
! <Surface Heat Transfer Algorithm>, Value {CTF - ConductionTransferFunction | EMPD - MoisturePenetrationDepthConductionTransferFunction | CondFD - ConductionFiniteDifference | HAMT - CombinedHeatAndMoistureFiniteElement} - Description,Inside Surface Max Temperature Limit{C}, Surface Convection Coefficient Lower Limit {W/m2-K}, Surface Convection Coefficient Upper Limit {W/m2-K}
Surface Heat Transfer Algorithm, CTF - ConductionTransferFunction,2000,0.10,1000.0
! <Shading Summary>, Number of Fixed Detached Shades, Number of Building Detached Shades, Number of Attached Shades
 Shading Summary,0,132,0
! <Zone Summary>, Number of Zones, Number of Zone Surfaces, Number of SubSurfaces
 Zone Summary,16,263,99
! <Zone Information>,Zone Name,North Axis {deg},Origin X-Coordinate {m},Origin Y-Coordinate {m},Origin Z-Coordinate {m},Centroid X-Coordinate {m},Centroid Y-Coordinate {m},Centroid Z-Coordinate {m},Type,Zone Multiplier,Zone List Multiplier,Minimum X {m},Maximum X {m},Minimum Y {m},Maximum Y {m},Minimum Z {m},Maximum Z {m},Ceiling Height {m},Volume {m3},Zone Inside Convection Algorithm {Simple-Detailed-CeilingDiffuser-TrombeWall},Zone Outside Convection Algorithm {Simple-Detailed-Tarp-MoWitt-DOE-2-BLAST}, Floor Area {m2},Exterior Gross Wall Area {m2},Exterior Net Wall Area {m2},Exterior Window Area {m2}, Number of Surfaces, Number of SubSurfaces, Number of Shading SubSurfaces,  Part of Total Building Area
 Zone Information, UNDERFLOOR_VOID_SPACE,0.0,0.00,0.00,0.00,6.89,19.14,0.56,1,1,1,-6.67,21.93,-5.53,39.73,0.00,1.12,1.12,685.02,TARP,DOE-2,611.63,135.55,96.64,0.00,16,5,0,No
 Zone Information, ROOFS1,0.0,0.00,0.00,0.00,0.28,2.67,4.46,1,1,1,-5.45,6.06,-0.99,6.40,4.12,5.42,0.71,32.33,TARP,DOE-2,25.57,0.00,0.00,0.00,7,1,0,No
 Zone Information, ROOFS2,0.0,0.00,0.00,0.00,1.53,7.30,4.46,1,1,1,-4.21,7.30,3.64,11.03,4.12,5.42,0.71,32.33,TARP,DOE-2,9.25E-002,0.00,0.00,0.00,7,2,0,No
 Zone Information, ROOFS3,0.0,0.00,0.00,0.00,2.77,11.94,4.46,1,1,1,-2.97,8.54,8.28,15.67,4.12,5.42,0.71,32.33,TARP,DOE-2,9.25E-002,0.00,0.00,0.00,7,2,0,No
 Zone Information, ROOFS0,0.0,0.00,0.00,0.00,-0.94,-1.92,4.46,1,1,1,-6.67,4.82,-5.53,1.76,4.12,5.42,0.71,31.75,TARP,DOE-2,9.19E-002,0.00,0.00,0.00,7,2,0,No
 Zone Information, ROOFS4,0.0,0.00,0.00,0.00,4.03,16.63,4.45,1,1,1,-1.73,9.81,12.92,20.41,4.12,5.42,0.71,32.98,TARP,DOE-2,9.32E-002,0.00,0.00,0.00,7,2,0,No
 Zone Information, ROOFN0,0.0,0.00,0.00,0.00,8.78,20.49,4.48,1,1,1,-0.45,18.05,15.80,25.24,4.12,5.42,0.74,60.94,TARP,DOE-2,5.48,0.00,0.00,20.57,8,13,0,No
 Zone Information, ROOFN3,0.0,0.00,0.00,0.00,12.66,34.98,4.48,1,1,1,3.43,21.93,30.29,39.73,4.12,5.42,0.72,61.04,TARP,DOE-2,0.15,0.00,0.00,0.00,7,2,0,No
 Zone Information, ROOFN1,0.0,0.00,0.00,0.00,10.07,25.32,4.48,1,1,1,0.84,19.35,20.63,30.07,4.12,5.42,0.73,60.94,TARP,DOE-2,15.81,0.00,0.00,12.34,8,9,0,No
 Zone Information, ROOFN2,0.0,0.00,0.00,0.00,11.37,30.15,4.48,1,1,1,2.13,20.64,25.46,34.90,4.12,5.42,0.73,60.94,TARP,DOE-2,0.17,0.00,0.00,12.34,7,8,0,No
 Zone Information, SWOFF,0.0,0.00,0.00,0.00,-0.99,8.13,2.62,1,1,1,-6.67,4.68,-4.16,20.41,1.12,4.12,3.00,174.52,TARP,DOE-2,127.61,84.03,36.96,41.59,15,9,0,Yes
 Zone Information, SEOFF,0.0,0.00,0.00,0.00,4.14,6.75,2.62,1,1,1,-1.54,9.81,-5.53,19.04,1.12,4.12,3.00,174.52,TARP,DOE-2,127.61,84.03,36.96,41.59,15,10,0,Yes
 Zone Information, NWOFF,0.0,0.00,0.00,0.00,3.41,24.55,2.62,1,1,1,-0.45,7.27,19.04,30.07,1.12,4.12,3.00,61.29,TARP,DOE-2,53.15,30.00,13.25,14.62,9,7,0,Yes
 Zone Information, NEOFF,0.0,0.00,0.00,0.00,17.25,26.02,2.62,1,1,1,12.55,21.94,15.80,36.25,1.12,4.12,3.00,571.03,TARP,DOE-2,87.00,86.13,38.04,42.37,16,11,0,Yes
 Zone Information, CENTRAL,0.0,0.00,0.00,0.00,9.91,22.81,2.62,1,1,1,4.68,15.14,16.92,28.69,1.12,4.12,3.00,289.81,TARP,DOE-2,81.55,8.52,3.88,3.94,10,8,0,Yes
 Zone Information, LARGECONF,0.0,0.00,0.00,0.00,9.93,33.16,2.62,1,1,1,2.13,17.73,26.58,39.74,1.12,4.12,3.00,563.90,TARP,DOE-2,134.70,70.42,30.99,35.81,12,8,0,Yes
! <Zone Internal Gains/Equipment Information - Nominal>,Zone Name, Floor Area {m2},# Occupants,Area per Occupant {m2/person},Occupant per Area {person/m2},Interior Lighting {W/m2},Electric Load {W/m2},Gas Load {W/m2},Other Load {W/m2},Hot Water Eq {W/m2},Steam Equipment {W/m2},Sum Loads per Area {W/m2},Outdoor Controlled Baseboard Heat
 Zone Internal Gains, UNDERFLOOR_VOID_SPACE,611.63,0.0,N/A,0.000,0.000,0.000,0.000,0.000,0.000,0.000,0.000,No
 Zone Internal Gains, ROOFS1,25.57,0.0,N/A,0.000,0.000,0.000,0.000,0.000,0.000,0.000,0.000,No
 Zone Internal Gains, ROOFS2,9.25E-002,0.0,N/A,0.000,0.000,0.000,0.000,0.000,0.000,0.000,0.000,No
 Zone Internal Gains, ROOFS3,9.25E-002,0.0,N/A,0.000,0.000,0.000,0.000,0.000,0.000,0.000,0.000,No
 Zone Internal Gains, ROOFS0,9.19E-002,0.0,N/A,0.000,0.000,0.000,0.000,0.000,0.000,0.000,0.000,No
 Zone Internal Gains, ROOFS4,9.32E-002,0.0,N/A,0.000,0.000,0.000,0.000,0.000,0.000,0.000,0.000,No
 Zone Internal Gains, ROOFN0,5.48,0.0,N/A,0.000,0.000,0.000,0.000,0.000,0.000,0.000,0.000,No
 Zone Internal Gains, ROOFN3,0.15,0.0,N/A,0.000,0.000,0.000,0.000,0.000,0.000,0.000,0.000,No
 Zone Internal Gains, ROOFN1,15.81,0.0,N/A,0.000,0.000,0.000,0.000,0.000,0.000,0.000,0.000,No
 Zone Internal Gains, ROOFN2,0.17,0.0,N/A,0.000,0.000,0.000,0.000,0.000,0.000,0.000,0.000,No
 Zone Internal Gains, SWOFF,127.61,8.0,15.952,6.269E-002,18.807,10.000,0.000,0.000,0.000,0.000,28.807,No
 Zone Internal Gains, SEOFF,127.61,8.0,15.952,6.269E-002,18.807,20.000,0.000,0.000,0.000,0.000,38.807,No
 Zone Internal Gains, NWOFF,53.15,2.0,26.575,3.763E-002,15.992,10.000,0.000,0.000,0.000,0.000,25.992,No
 Zone Internal Gains, NEOFF,87.00,2.0,43.502,2.299E-002,17.240,40.000,0.000,0.000,0.000,0.000,57.240,No
 Zone Internal Gains, CENTRAL,81.55,3.0,27.183,3.679E-002,17.168,10.000,0.000,0.000,0.000,0.000,27.168,No
 Zone Internal Gains, LARGECONF,134.70,20.0,6.735,0.148,17.818,10.000,0.000,0.000,0.000,0.000,27.818,No
! <People Internal Gains - Nominal>,Name,Schedule Name,Zone Name,Zone Floor Area {m2},# Zone Occupants,Number of People {},People/Floor Area {person/m2},Floor Area per person {m2/person},Fraction Radiant,Fraction Convected,Sensible Fraction Calculation,Activity level,ASHRAE 55 Warnings,Carbon Dioxide Generation Rate,Nominal Minimum Number of People,Nominal Maximum Number of People,MRT Calculation Type,Work Efficiency, Clothing Insulation Calculation Method,Clothing Insulation Calculation Method Schedule,Clothing,Air Velocity,Fanger Calculation,Pierce Calculation,KSU Calculation
 People Internal Gains, PEOPLE CENTRAL,OFFICE_EATDRINK_OCC,CENTRAL,81.55,3.0,3.0,3.679E-002,27.183,0.300,0.700,AutoCalculate,ACTIVITY SCHEDULE WALKING,No,3.8200E-008,0,3,Zone Averaged,WORK EFFICIENCY,Clothing Insulation Schedule,N/A,CLOTHING SCHEDULE NORMAL,AIRVELOCITYSCHEDULE,Yes,No,No
 People Internal Gains, PEOPLE NEOFF,IW_OFFICE_TERM_RELATED_OCC,NEOFF,87.00,2.0,2.0,2.299E-002,43.502,0.300,0.700,AutoCalculate,ACTIVITY SCHEDULE SEATED,No,3.8200E-008,0,2,Zone Averaged,WORK EFFICIENCY,Clothing Insulation Schedule,N/A,CLOTHING SCHEDULE NORMAL,AIRVELOCITYSCHEDULE,Yes,No,No
 People Internal Gains, PEOPLE SEOFF,IW_OFFICE_TERM_RELATED_OCC,SEOFF,127.61,8.0,8.0,6.269E-002,15.952,0.300,0.700,AutoCalculate,ACTIVITY SCHEDULE SEATED,No,3.8200E-008,0,8,Zone Averaged,WORK EFFICIENCY,Clothing Insulation Schedule,N/A,CLOTHING SCHEDULE NORMAL,AIRVELOCITYSCHEDULE,Yes,No,No
 People Internal Gains, PEOPLE NWOFF,IW_OFFICE_TERM_RELATED_OCC,NWOFF,53.15,2.0,2.0,3.763E-002,26.575,0.300,0.700,AutoCalculate,ACTIVITY SCHEDULE SEATED,No,3.8200E-008,0,2,Zone Averaged,WORK EFFICIENCY,Clothing Insulation Schedule,N/A,CLOTHING SCHEDULE NORMAL,AIRVELOCITYSCHEDULE,Yes,No,No
 People Internal Gains, PEOPLE SWOFF,IW_OFFICE_TERM_RELATED_OCC,SWOFF,127.61,8.0,8.0,6.269E-002,15.952,0.300,0.700,AutoCalculate,ACTIVITY SCHEDULE SEATED,No,3.8200E-008,0,8,Zone Averaged,WORK EFFICIENCY,Clothing Insulation Schedule,N/A,CLOTHING SCHEDULE NORMAL,AIRVELOCITYSCHEDULE,Yes,No,No
 People Internal Gains, PEOPLE LARGECONF,IW_CLASSROOM_OCC,LARGECONF,134.70,20.0,20.0,0.148,6.735,0.300,0.700,AutoCalculate,ACTIVITY SCHEDULE SEATED,No,3.8200E-008,0,20,Zone Averaged,WORK EFFICIENCY,Clothing Insulation Schedule,N/A,CLOTHING SCHEDULE NORMAL,AIRVELOCITYSCHEDULE,Yes,No,No
! <Lights Internal Gains - Nominal>,Name,Schedule Name,Zone Name,Zone Floor Area {m2},# Zone Occupants,Lighting Level {W},Lights/Floor Area {W/m2},Lights per person {W/person},Fraction Return Air,Fraction Radiant,Fraction Short Wave,Fraction Convected,Fraction Replaceable,End-Use Category,Nominal Minimum Lighting Level {W},Nominal Maximum Lighting Level {W}
 Lights Internal Gains, CENTRAL GENERAL LIGHTING,IW_OFF,CENTRAL,81.55,3.0,1400.000,17.168,466.667,0.000,0.420,0.180,0.400,1.000,ELECTRIC EQUIPMENT#kitchen#GeneralLights,0.000,1400.000
 Lights Internal Gains, NEOFF GENERAL LIGHTING,IW_OFF,NEOFF,87.00,2.0,1500.000,17.240,750.000,0.000,0.420,0.180,0.400,1.000,ELECTRIC EQUIPMENT#bas#GeneralLights,0.000,1500.000
 Lights Internal Gains, SEOFF GENERAL LIGHTING,IW_OFFICE_PHD_LIGHT,SEOFF,127.61,8.0,2400.000,18.807,300.000,0.000,0.420,0.180,0.400,1.000,ELECTRIC EQUIPMENT#off-yujie#GeneralLights,0.000,2400.000
 Lights Internal Gains, NWOFF GENERAL LIGHTING,IW_OFF,NWOFF,53.15,2.0,850.000,15.992,425.000,0.000,0.420,0.180,0.400,1.000,ELECTRIC EQUIPMENT#off-volker#GeneralLights,0.000,850.000
 Lights Internal Gains, SWOFF GENERAL LIGHTING,IW_OFFICE_PHD_LIGHT,SWOFF,127.61,8.0,2400.000,18.807,300.000,0.000,0.420,0.180,0.400,1.000,ELECTRIC EQUIPMENT#off-james#GeneralLights,0.000,2400.000
 Lights Internal Gains, LARGECONF GENERAL LIGHTING,IW_OFF,LARGECONF,134.70,20.0,2400.000,17.818,120.000,0.000,0.420,0.180,0.400,1.000,ELECTRIC EQUIPMENT#largeConf1#GeneralLights,0.000,2400.000
! <ElectricEquipment Internal Gains - Nominal>,Name,Schedule Name,Zone Name,Zone Floor Area {m2},# Zone Occupants,Equipment Level {W},Equipment/Floor Area {W/m2},Equipment per person {W/person},Fraction Latent,Fraction Radiant,Fraction Lost,Fraction Convected,End-Use SubCategory,Nominal Minimum Equipment Level {W},Nominal Maximum Equipment Level {W}
 ElectricEquipment Internal Gains, CENTRAL EQUIPMENT 1,IW_OFFICE_ALLYEAR_OCC,CENTRAL,81.55,3.0,815.477,10.000,271.826,0.000,0.200,0.000,0.800,ELECTRIC EQUIPMENT#kitchen#05,163.095,815.477
 ElectricEquipment Internal Gains, NEOFF EQUIPMENT 1,IW_OFFICE_ALLYEAR_OCC,NEOFF,87.00,2.0,3480.184,40.000,1740.092,0.000,0.200,0.000,0.800,ELECTRIC EQUIPMENT#bas#05,696.037,3480.184
 ElectricEquipment Internal Gains, SEOFF COMPUTING GAIN 1,IW_OFFICE_ALLYEAR_OCC,SEOFF,127.61,8.0,2552.263,20.000,319.033,0.000,0.200,0.000,0.800,ELECTRIC EQUIPMENT#off-yujie#05,510.453,2552.263
 ElectricEquipment Internal Gains, NWOFF COMPUTING GAIN 1,IW_OFFICE_ALLYEAR_OCC,NWOFF,53.15,2.0,531.500,10.000,265.750,0.000,0.200,0.000,0.800,ELECTRIC EQUIPMENT#off-volker#05,106.300,531.500
 ElectricEquipment Internal Gains, SWOFF COMPUTING GAIN 1,IW_OFFICE_ALLYEAR_OCC,SWOFF,127.61,8.0,1276.132,10.000,159.516,0.000,0.200,0.000,0.800,ELECTRIC EQUIPMENT#off-james#05,255.226,1276.132
 ElectricEquipment Internal Gains, LARGECONF EQUIPMENT 1,IW_CLASSROOM_OCC,LARGECONF,134.70,20.0,1346.977,10.000,67.349,0.000,0.200,0.000,0.800,ELECTRIC EQUIPMENT#largeConf1#05,0.000,1346.977
! <Construction CTF>,Construction Name,Index,#Layers,#CTFs,Time Step {hours},ThermalConductance {w/m2-K},OuterThermalAbsorptance,InnerThermalAbsorptance,OuterSolarAbsorptance,InnerSolarAbsorptance,Roughness
! <Material CTF Summary>,Material Name,Thickness {m},Conductivity {w/m-K},Density {kg/m3},Specific Heat {J/kg-K},ThermalResistance {m2-K/w}
! <Material:Air>,Material Name,ThermalResistance {m2-K/w}
! <CTF>,Time,Outside,Cross,Inside,Flux (except final one)
 Construction CTF,LINEARBRIDGINGCONSTRUCTION,   2,   1,   1,   0.083,      1.596    ,   0.010,   0.010,   0.010,   0.010,Rough
 Material CTF Summary,LINEARBRIDGINGLAYER,  0.0000,         0.000,      0.000,        0.000,  0.6267    
 CTF,   1,       0.0000000    ,       0.0000000    ,      -0.0000000    ,      -0.0000000    
 CTF,   0,       1.5956598    ,       1.5956598    ,       1.5956598    
 Construction CTF,FLOOR_SLAB_1,   3,   1,   9,   0.083,      5.650    ,   0.900,   0.900,   0.600,   0.600,Rough
 Material CTF Summary,AERATED_CONCRETE_20CM,  0.2000,         1.130,   2000.000,     1000.000,  0.1770    
 CTF,   9,     -0.56831742E-01,      0.50471889E-11,     -0.56831742E-01,      0.85663383E-03
 CTF,   8,       1.2788523    ,      0.10112661E-07,       1.2788523    ,     -0.19685199E-01
 CTF,   7,      -12.267178    ,      0.95428728E-06,      -12.267178    ,      0.19338641    
 CTF,   6,       65.793503    ,      0.17918627E-04,       65.793503    ,      -1.0654348    
 CTF,   5,      -217.45487    ,      0.99883862E-04,      -217.45487    ,       3.6280720    
 CTF,   4,       459.66872    ,      0.18948584E-03,       459.66872    ,      -7.9241899    
 CTF,   3,      -622.33628    ,      0.12243644E-03,      -622.33628    ,       11.113859    
 CTF,   2,       521.34913    ,      0.23538425E-04,       521.34913    ,      -9.6665654    
 CTF,   1,      -245.75197    ,      0.90277205E-06,      -245.75197    ,       4.7396208    
 CTF,   0,       49.777384    ,      0.16268094E-08,       49.777384    
 Construction CTF,FLOOR_SLAB_2,   4,   1,   9,   0.083,      5.650    ,   0.900,   0.900,   0.600,   0.600,Rough
 Material CTF Summary,AERATED_CONCRETE_20CM,  0.2000,         1.130,   2000.000,     1000.000,  0.1770    
 CTF,   9,     -0.56831742E-01,      0.50471889E-11,     -0.56831742E-01,      0.85663383E-03
 CTF,   8,       1.2788523    ,      0.10112661E-07,       1.2788523    ,     -0.19685199E-01
 CTF,   7,      -12.267178    ,      0.95428728E-06,      -12.267178    ,      0.19338641    
 CTF,   6,       65.793503    ,      0.17918627E-04,       65.793503    ,      -1.0654348    
 CTF,   5,      -217.45487    ,      0.99883862E-04,      -217.45487    ,       3.6280720    
 CTF,   4,       459.66872    ,      0.18948584E-03,       459.66872    ,      -7.9241899    
 CTF,   3,      -622.33628    ,      0.12243644E-03,      -622.33628    ,       11.113859    
 CTF,   2,       521.34913    ,      0.23538425E-04,       521.34913    ,      -9.6665654    
 CTF,   1,      -245.75197    ,      0.90277205E-06,      -245.75197    ,       4.7396208    
 CTF,   0,       49.777384    ,      0.16268094E-08,       49.777384    
 Construction CTF,INSULATED_METAL_PANEL_WALL_5,   5,   3,   8,   0.083,     0.2855    ,   0.900,   0.900,   0.600,   0.600,Rough
 Material CTF Summary,STEEL_5MM,  0.0500,        45.000,   7800.000,      480.000,  0.1111E-02
 Material CTF Summary,FOAM_POLYISOCYANATE_105MM,  0.1050,         0.030,     45.000,     1470.000,   3.500    
 Material CTF Summary,STEEL_5MM,  0.0500,        45.000,   7800.000,      480.000,  0.1111E-02
 CTF,   8,      0.10358965E-02,     -0.13860724E-11,      0.10358965E-02,      0.49415222E-16
 CTF,   7,     -0.26955230    ,      0.15508997E-08,     -0.26955230    ,      0.11111021E-04
 CTF,   6,       11.109814    ,      0.95291981E-06,       11.109814    ,     -0.88115865E-03
 CTF,   5,      -131.44148    ,      0.54554157E-04,      -131.44148    ,      0.22862460E-01
 CTF,   4,       700.62061    ,      0.61974585E-03,       700.62061    ,     -0.22272081    
 CTF,   3,      -1930.0613    ,      0.17436234E-02,      -1930.0613    ,       1.0102001    
 CTF,   2,       2831.7042    ,      0.12054296E-02,       2831.7042    ,      -2.2796437    
 CTF,   1,      -2091.6805    ,      0.15344499E-03,      -2091.6805    ,       2.4569379    
 CTF,   0,       610.02096    ,      0.10170036E-05,       610.02096    
 Construction CTF,PLENUM_CONCRETE_BASE_WALL_7,   6,   1,  15,   0.083,      3.767    ,   0.900,   0.900,   0.600,   0.600,Rough
 Material CTF Summary,AERATED_CONCRETE_30CM,  0.3000,         1.130,   2000.000,     1000.000,  0.2655    
 CTF,  15,     -0.72201900E-04,      0.31297033E-15,     -0.72201900E-04,      0.99437089E-06
 CTF,  14,      0.33044989E-02,      0.22233996E-14,      0.33044989E-02,     -0.46102151E-04
 CTF,  13,     -0.68501179E-01,      0.16975573E-13,     -0.68501179E-01,      0.96931314E-03
 CTF,  12,      0.85248996    ,      0.24804482E-11,      0.85248996    ,     -0.12251049E-01
 CTF,  11,      -7.1182273    ,      0.14248357E-09,      -7.1182273    ,      0.10403220    
 CTF,  10,       42.223046    ,      0.30854307E-08,       42.223046    ,     -0.62844796    
 CTF,   9,      -183.75627    ,      0.29482979E-07,      -183.75627    ,       2.7893631    
 CTF,   8,       597.46623    ,      0.13436206E-06,       597.46623    ,      -9.2626234    
 CTF,   7,      -1463.5788    ,      0.30248752E-06,      -1463.5788    ,       23.205559    
 CTF,   6,       2702.3270    ,      0.33633859E-06,       2702.3270    ,      -43.877046    
 CTF,   5,      -3732.4286    ,      0.17868466E-06,      -3732.4286    ,       62.135942    
 CTF,   4,       3790.1178    ,      0.41829203E-07,       3790.1178    ,      -64.764291    
 CTF,   3,      -2741.5803    ,      0.37588708E-08,      -2741.5803    ,       48.132687    
 CTF,   2,       1335.0036    ,      0.74034429E-10,       1335.0036    ,      -24.101483    
 CTF,   1,      -391.74261    ,      0.57909943E-11,      -391.74261    ,       7.2776356    
 CTF,   0,       52.280031    ,     -0.74647594E-12,       52.280031    
 Construction CTF,INTERNAL_PARTITION_9,   7,   3,   8,   0.083,      2.857    ,   0.900,   0.900,   0.500,   0.500,Rough
 Material CTF Summary,GYPSUM_PLASTERBOARD_25MM,  0.0250,         0.250,    900.000,     1000.000,  0.1000    
 Material CTF Summary,AIR_GAP_10MM,  0.0000,         0.000,      0.000,        0.000,  0.1500    
 Material CTF Summary,GYPSUM_PLASTERBOARD_25MM,  0.0250,         0.250,    900.000,     1000.000,  0.1000    
 CTF,   8,      0.48573921E-13,      0.32630794E-14,      0.48562056E-13,      0.15899355E-16
 CTF,   7,     -0.24373799E-08,      0.12482717E-09,     -0.24373799E-08,      0.20632903E-12
 CTF,   6,      0.99903157E-05,      0.47130429E-06,      0.99903157E-05,     -0.65313173E-08
 CTF,   5,     -0.53575297E-02,      0.18892396E-03,     -0.53575297E-02,      0.70311917E-05
 CTF,   4,      0.41222016    ,      0.10343044E-01,      0.41222016    ,     -0.19971813E-02
 CTF,   3,      -6.9991400    ,      0.95135246E-01,      -6.9991400    ,      0.61598067E-01
 CTF,   2,       33.257988    ,      0.15971788    ,       33.257988    ,     -0.58142131    
 CTF,   1,      -54.484781    ,      0.40137365E-01,      -54.484781    ,       1.4147285    
 CTF,   0,       28.125017    ,      0.43404747E-03,       28.125017    
 Construction CTF,PITCHED_ROOF_RIP40_13,   8,   3,   6,   0.083,     0.2965    ,   0.900,   0.900,   0.600,   0.600,Rough
 Material CTF Summary,STAINLESS_STEEL_1CM,  0.0100,        29.000,   7850.000,      480.000,  0.3448E-03
 Material CTF Summary,RIP40_BATT_INSULATION_GLASS_FIBER_30CM,  0.1450,         0.043,     12.000,      840.000,   3.372    
 Material CTF Summary,STAINLESS_STEEL_1CM,  0.0100,        29.000,   7850.000,      480.000,  0.3448E-03
 CTF,   6,      0.38439652E-07,      0.25217150E-12,      0.38439652E-07,     -0.19158253E-15
 CTF,   5,     -0.16791785E-03,      0.26885186E-08,     -0.16791785E-03,      0.30527535E-09
 CTF,   4,      0.11309152    ,      0.11348451E-04,      0.11309152    ,     -0.13330794E-05
 CTF,   3,      -9.1503890    ,      0.23607270E-02,      -9.1503890    ,      0.89644290E-03
 CTF,   2,       95.193558    ,      0.39246028E-01,       95.193558    ,     -0.71688673E-01
 CTF,   1,      -213.00625    ,      0.65938341E-01,      -213.00625    ,      0.68207218    
 CTF,   0,       126.96541    ,      0.76959768E-02,       126.96541    
 Construction CTF,FLAT_ROOF_RIP10_15,   9,   3,   5,   0.083,     0.6151    ,   0.900,   0.900,   0.600,   0.600,Rough
 Material CTF Summary,STAINLESS_STEEL_1CM,  0.0100,        29.000,   7850.000,      480.000,  0.3448E-03
 Material CTF Summary,EPS_65MM,  0.0650,         0.040,     15.000,     1400.000,   1.625    
 Material CTF Summary,STAINLESS_STEEL_1CM,  0.0100,        29.000,   7850.000,      480.000,  0.3448E-03
 CTF,   5,     -0.70387699E-11,     -0.23063627E-12,     -0.70387699E-11,     -0.83814426E-16
 CTF,   4,      0.15738396E-04,      0.38937211E-08,      0.15738396E-04,     -0.58068553E-13
 CTF,   3,     -0.26569275    ,      0.13978076E-03,     -0.26569275    ,      0.12506842E-06
 CTF,   2,       35.513864    ,      0.40691243E-01,       35.513864    ,     -0.21095529E-02
 CTF,   1,      -162.27332    ,      0.30189606    ,      -162.27332    ,      0.27932304    
 CTF,   0,       127.46974    ,      0.10187584    ,       127.46974    
 Construction CTF,INTERNAL_FLOOR_3,  15,   2,   7,   0.083,      3.084    ,   0.900,   0.900,   0.700,   0.600,Rough
 Material CTF Summary,CARPET,  0.0000,         0.000,      0.000,        0.000,  0.2800    
 Material CTF Summary,AERATED_CONCRETE_1CM,  0.0500,         1.130,   2000.000,     1000.000,  0.4425E-01
 CTF,   7,      0.23941238E-16,     -0.34449501E-16,     -0.19260164E-14,       0.0000000    
 CTF,   6,      0.19511410E-10,      0.11932366E-10,      0.12574211E-08,     -0.85226289E-12
 CTF,   5,     -0.15829855E-06,      0.28907867E-06,     -0.18556106E-04,      0.15157875E-07
 CTF,   4,      0.20745782E-03,      0.29828021E-03,      0.30652548E-01,     -0.41897747E-04
 CTF,   3,     -0.41979951E-01,      0.21939113E-01,      -4.1200665    ,      0.10843255E-01
 CTF,   2,       1.0012339    ,      0.16881689    ,       53.519964    ,     -0.27431660    
 CTF,   1,      -4.0673361    ,      0.16114243    ,      -130.77757    ,       1.1456246    
 CTF,   0,       3.4714566    ,      0.11385290E-01,       81.710623    
 Construction CTF,INTERNAL_FLOOR_4,  16,   2,   7,   0.083,      3.084    ,   0.900,   0.900,   0.600,   0.700,Rough
 Material CTF Summary,AERATED_CONCRETE_1CM,  0.0500,         1.130,   2000.000,     1000.000,  0.4425E-01
 Material CTF Summary,CARPET,  0.0000,         0.000,      0.000,        0.000,  0.2800    
 CTF,   7,     -0.19260164E-14,     -0.34449501E-16,      0.23941238E-16,       0.0000000    
 CTF,   6,      0.12574211E-08,      0.11932366E-10,      0.19511410E-10,     -0.85226289E-12
 CTF,   5,     -0.18556106E-04,      0.28907867E-06,     -0.15829855E-06,      0.15157875E-07
 CTF,   4,      0.30652548E-01,      0.29828021E-03,      0.20745782E-03,     -0.41897747E-04
 CTF,   3,      -4.1200665    ,      0.21939113E-01,     -0.41979951E-01,      0.10843255E-01
 CTF,   2,       53.519964    ,      0.16881689    ,       1.0012339    ,     -0.27431660    
 CTF,   1,      -130.77757    ,      0.16114243    ,      -4.0673361    ,       1.1456246    
 CTF,   0,       81.710623    ,      0.11385290E-01,       3.4714566    
 Construction CTF,INTERNAL_FLOOR_NOCARPET,  17,   1,   5,   0.083,      22.60    ,   0.900,   0.900,   0.600,   0.600,Rough
 Material CTF Summary,AERATED_CONCRETE_1CM,  0.0500,         1.130,   2000.000,     1000.000,  0.4425E-01
 CTF,   5,     -0.95837376E-06,      0.19403224E-06,     -0.95837376E-06,      0.65029175E-09
 CTF,   4,      0.38174202E-02,      0.97577525E-03,      0.38174202E-02,     -0.43260165E-05
 CTF,   3,     -0.98961162    ,      0.18947124    ,     -0.98961162    ,      0.22063642E-02
 CTF,   2,       23.882662    ,       2.9033736    ,       23.882662    ,     -0.99476347E-01
 CTF,   1,      -96.134549    ,       4.7873600    ,      -96.134549    ,      0.72233899    
 CTF,   0,       81.711221    ,      0.59235743    ,       81.711221    
 Construction CTF,CEILING_TILE_PANEL_12,  21,   1,   2,   0.083,      11.20    ,   0.900,   0.900,   0.500,   0.500,Rough
 Material CTF Summary,CEILING_TILE_1CM,  0.0050,         0.056,    380.000,     1000.000,  0.8929E-01
 CTF,   2,      0.80028079E-07,      0.47306125E-07,      0.80028079E-07,     -0.31233961E-28
 CTF,   1,      -1.9938287    ,       1.1728375    ,      -1.9938287    ,      0.15509881E-06
 CTF,   0,       13.193827    ,       10.027161    ,       13.193827    
 Construction CTF,IRTSURFACE,  22,   1,   1,   0.083,      100.0    ,   1.000,   1.000,   1.000,   1.000,
 Material CTF Summary,IRTMATERIAL,  0.0000,         0.000,      0.000,        0.000,  0.1000E-01
 CTF,   1,       0.0000000    ,       0.0000000    ,      -0.0000000    ,      -0.0000000    
 CTF,   0,       100.00000    ,       100.00000    ,       100.00000    
 Construction CTF,WINDOW_FRAME_UIP0P49_MULL_17,  23,   3,   3,   0.083,      15.99    ,   0.900,   0.900,   0.600,   0.600,Rough
 Material CTF Summary,ALUMINIUM_2MM,  0.0030,       230.000,   2700.000,      880.000,  0.1304E-04
 Material CTF Summary,PVC_3CM,  0.0100,         0.160,   1380.000,     1000.000,  0.6250E-01
 Material CTF Summary,COPPER_2MM,  0.0050,       200.000,   7000.000,      460.000,  0.2500E-04
 CTF,   3,     -0.36780339E-05,      0.62146659E-07,     -0.75323859E-05,      0.35581610E-15
 CTF,   2,       1.0647639    ,      0.51046971E-01,       2.1106746    ,     -0.12923452E-06
 CTF,   1,      -40.613409    ,       6.5479853    ,      -71.539119    ,      0.35039742E-01
 CTF,   0,       54.978623    ,       8.8309417    ,       84.858426    
 QTF,   3,     -0.15456505E-11,      0.10407494E-09
 QTF,   2,     -0.12733329E-05,     -0.29794038E-04
 QTF,   1,     -0.16361546E-03,     -0.33926208E-01
 QTF,   0,     -0.22086055E-03,      0.99853064    
 Source/Sink Loc Internal Temp QTF,   3,      0.15466821E-11,      0.10407244E-09,      0.18505772E-14
 Source/Sink Loc Internal Temp QTF,   2,      0.12733329E-05,     -0.29794038E-04,     -0.54104092E-09
 Source/Sink Loc Internal Temp QTF,   1,      0.16361546E-03,     -0.33926208E-01,     -0.85417973E-06
 Source/Sink Loc Internal Temp QTF,   0,      0.22086055E-03,      0.99853064    ,      0.24969087E-04
 User Loc Internal Temp QTF,   3,      0.15466821E-11,      0.10407244E-09,      0.18505772E-14
 User Loc Internal Temp QTF,   2,      0.12733329E-05,     -0.29794038E-04,     -0.54104092E-09
 User Loc Internal Temp QTF,   1,      0.16361546E-03,     -0.33926208E-01,     -0.85417973E-06
 User Loc Internal Temp QTF,   0,      0.22086055E-03,      0.99853064    ,      0.24969087E-04
 Construction CTF,COOLED_PANEL_12,  24,   2,   2,   0.083,     20000.    ,   0.900,   0.900,   0.600,   0.600,Rough
 Material CTF Summary,COPPER_2MM,  0.0050,       200.000,   7000.000,      460.000,  0.2500E-04
 Material CTF Summary,COPPER_2MM,  0.0050,       200.000,   7000.000,      460.000,  0.2500E-04
 CTF,   2,      0.67097689E-11,      0.23260916E-11,      0.67097689E-11,       0.0000000    
 CTF,   1,      -35.218750    ,       18.447917    ,      -35.218750    ,      0.53878423E-12
 CTF,   0,       20035.219    ,       19981.552    ,       20035.219    
 QTF,   2,     -0.64840314E-17,      0.64840314E-17
 QTF,   1,     -0.34473380E-03,      0.34473380E-03
 QTF,   0,     -0.49965527    ,      0.49965527    
 Source/Sink Loc Internal Temp QTF,   2,      0.72554428E-17,      0.72554428E-17,     -0.51928521E-22
 Source/Sink Loc Internal Temp QTF,   1,      0.34473380E-03,      0.34473380E-03,      0.57067419E-08
 Source/Sink Loc Internal Temp QTF,   0,      0.49965527    ,      0.49965527    ,      0.12494293E-04
 User Loc Internal Temp QTF,   2,      0.72554428E-17,      0.72554428E-17,     -0.51928521E-22
 User Loc Internal Temp QTF,   1,      0.34473380E-03,      0.34473380E-03,      0.57067419E-08
 User Loc Internal Temp QTF,   0,      0.49965527    ,      0.49965527    ,      0.12494293E-04
 Construction CTF,INSULATED_METAL_PANEL_WALL_MULL,  25,   3,   3,   0.083,      11.84    ,   0.900,   0.900,   0.600,   0.600,Rough
 Material CTF Summary,STEEL_5MM,  0.0500,        45.000,   7800.000,      480.000,  0.1111E-02
 Material CTF Summary,FOAM_POLYISOCYANATE_105MM_MULL,  0.0025,         0.030,     45.000,     1470.000,  0.8333E-01
 Material CTF Summary,COPPER_2MM,  0.0050,       200.000,   7000.000,      460.000,  0.2500E-04
 CTF,   3,     -0.45847709E-12,     -0.20345301E-10,     -0.57279552E-12,       0.0000000    
 CTF,   2,       2.7055572    ,      0.56151808E-02,       1.5713384    ,     -0.27089000E-13
 CTF,   1,      -603.56610    ,       3.7983848    ,      -55.791409    ,      0.29186735E-01
 CTF,   0,       612.35362    ,       7.6890704    ,       65.713141    
 QTF,   3,      0.30835869E-18,     -0.21534036E-17
 QTF,   2,     -0.13970587E-06,     -0.20249934E-04
 QTF,   1,     -0.94894040E-04,     -0.28463114E-01
 QTF,   0,     -0.19229301E-03,      0.99900930    
 Source/Sink Loc Internal Temp QTF,   3,     -0.47296382E-15,      0.13098260E-16,      0.17936705E-21
 Source/Sink Loc Internal Temp QTF,   2,      0.13970587E-06,     -0.20249934E-04,     -0.33633885E-09
 Source/Sink Loc Internal Temp QTF,   1,      0.94894040E-04,     -0.28463114E-01,     -0.71756924E-06
 Source/Sink Loc Internal Temp QTF,   0,      0.19229301E-03,      0.99900930    ,      0.24981054E-04
 User Loc Internal Temp QTF,   3,     -0.47296382E-15,      0.13098260E-16,      0.17936705E-21
 User Loc Internal Temp QTF,   2,      0.13970587E-06,     -0.20249934E-04,     -0.33633885E-09
 User Loc Internal Temp QTF,   1,      0.94894040E-04,     -0.28463114E-01,     -0.71756924E-06
 User Loc Internal Temp QTF,   0,      0.19229301E-03,      0.99900930    ,      0.24981054E-04
! <WindowConstruction>,Construction Name,Index,#Layers,Roughness,Conductance {W/m2-K},SHGC,Solar Transmittance at Normal Incidence,Visible Transmittance at Normal Incidence
! <WindowMaterial:Glazing>, Material Name, Optical Data Type, Spectral Data Set Name, Thickness {m}, Solar Transmittance,Front Solar Reflectance, Back Solar Reflectance, Visible Transmittance, Front Visible Reflectance,Back Visible Reflectance,Infrared Transmittance, Front Thermal Emissivity, Back Thermal Emissivity,Conductivity {W/m-K},Dirt Factor,Solar Diffusing
! <WindowMaterial:Gas>,Material Name,GasType,Thickness {m}
! <WindowMaterial:Shade>,Material Name,Thickness {m},Conductivity {W/m-K},Thermal Absorptance,Transmittance,Visible Transmittance,Shade Reflectance
! <WindowMaterial:Blind>,Material Name,Slat Width {m},Slat Separation {m},Slat Thickness {m},Slat Angle {deg},Slat Beam Solar Transmittance,Slat Beam Solar Front Reflectance,Blind To Glass Distance {m}
 WindowConstruction,GLASSASVIRTUALPARTITION,1,1,VerySmooth,3.137,0.991,0.990,0.990
 WindowMaterial:Glazing,GLASS_VERY_CLEAR,SpectralAverage,,1.00000E-003,0.99000,1.00000E-003,1.00000E-003,0.99000,1.00000E-003,1.00000E-003,0.99000,1.00000E-002,1.00000E-002,0.90000,1.00000,No
 WindowConstruction,LOWE_DOUBLE_LAYER_UIP0D43_100123456,10,1,VerySmooth,2.658,0.417,0.338,0.252
 WindowMaterial:Glazing,IW_EXT_WIN_SIMPLE,SpectralAverage,,2.43889E-002,0.33711,0.44856,0.44856,0.25200,0.16101,0.23769,0.00000,0.84000,0.84000,0.11870,1.00000,No
 WindowConstruction,LOWE_DOUBLE_LAYER_INSIDE_BLIND_2001,11,2,VerySmooth,2.658,0.293,6.120E-002,3.316E-002
 WindowMaterial:Glazing,IW_EXT_WIN_SIMPLE,SpectralAverage,,2.43889E-002,0.33711,0.44856,0.44856,0.25200,0.16101,0.23769,0.00000,0.84000,0.84000,0.11870,1.00000,No
 WindowMaterial:Blind,BLIND_3002,7.0000E-003,5.0000E-003,2.0000E-004,20.000,0.000,0.800,2.000E-002
 WindowConstruction,LOWE_DOUBLE_LAYER_INSIDE_SHADE_2003,12,2,VerySmooth,2.658,0.363,2.120E-002,1.428E-002
 WindowMaterial:Glazing,IW_EXT_WIN_SIMPLE,SpectralAverage,,2.43889E-002,0.33711,0.44856,0.44856,0.25200,0.16101,0.23769,0.00000,0.84000,0.84000,0.11870,1.00000,No
 WindowMaterial:Shade,,INTERNAL_SHADE_30004,5.000E-003,0.100,0.900,5.000E-002,5.000E-002,0.350
 WindowConstruction,LOWE_DOUBLE_LAYER_OUTSIDE_REFLECTOR_2004,13,2,Rough,2.457,0.116,9.689E-002,7.083E-002
 WindowMaterial:Blind,EXTERNAL_REFLECTOR_30001,0.3700,0.3700,1.0000E-002,0.000,0.332,0.500,1.000
 WindowMaterial:Glazing,IW_EXT_WIN_SIMPLE,SpectralAverage,,2.43889E-002,0.33711,0.44856,0.44856,0.25200,0.16101,0.23769,0.00000,0.84000,0.84000,0.11870,1.00000,No
 WindowConstruction,LOWE_DOUBLE_LAYER_OUTSIDE_BLIND_2006,14,2,Rough,2.457,4.437E-002,3.724E-002,2.097E-002
 WindowMaterial:Blind,BLIND_3002,7.0000E-003,5.0000E-003,2.0000E-004,20.000,0.000,0.800,2.000E-002
 WindowMaterial:Glazing,IW_EXT_WIN_SIMPLE,SpectralAverage,,2.43889E-002,0.33711,0.44856,0.44856,0.25200,0.16101,0.23769,0.00000,0.84000,0.84000,0.11870,1.00000,No
 WindowConstruction,SINGLE_LAYER_GLAZING_11,18,1,VerySmooth,3.437,0.450,0.361,0.502
 WindowMaterial:Glazing,GLASS_3MM,SpectralAverage,,6.00000E-003,0.36000,9.30000E-002,0.20000,0.50000,3.50000E-002,5.40000E-002,0.00000,0.84000,0.10000,0.90000,1.00000,No
 WindowConstruction,SINGLE_LAYER_GLAZING_12,19,1,VerySmooth,3.437,0.450,0.361,0.502
 WindowMaterial:Glazing,GLASS_3MM,SpectralAverage,,6.00000E-003,0.36000,9.30000E-002,0.20000,0.50000,3.50000E-002,5.40000E-002,0.00000,0.84000,0.10000,0.90000,1.00000,No
 WindowConstruction,SINGLE_LAYER_GLAZING_9,20,1,VerySmooth,3.437,0.450,0.361,0.502
 WindowMaterial:Glazing,GLASS_3MM,SpectralAverage,,6.00000E-003,0.36000,9.30000E-002,0.20000,0.50000,3.50000E-002,5.40000E-002,0.00000,0.84000,0.10000,0.90000,1.00000,No
! <Shadowing/Sun Position Calculations> [Annual Simulations], Calculation Method, Value {days}, Allowable Number Figures in Shadow Overlap {}, Polygon Clipping Algorithm, Sky Diffuse Modeling Algorithm
Shadowing/Sun Position Calculations,AverageOverDaysInFrequency,20,15000,SutherlandHodgman,SimpleSkyDiffuseModeling
! <Surface Convection Parameters>, Surface Name, Outside Model Assignment, Outside Area [m2], Outside Perimeter [m], Outside Height [m], Inside Model Assignment, Inside Height [cm], Inside Perimeter Envelope [m], Inside Hydraulic Diameter [m], Window Wall Ratio [ ], Window Location [ ], Near Radiant [Yes/No], Has Active HVAC [Yes/No]
Surface Convection Parameters,UNDERFLOOR_VOID_SPACE_WALL_2_0_0,0,165.57,100.64,4.12,0,1.12,121.03,16.56,0.00,0,No,No
Surface Convection Parameters,UNDERFLOOR_VOID_SPACE_WALL_2_0_0_0_0_0_SUBSURFACE,0,165.57,100.64,4.12,0,1.12,121.03,16.56,0.00,0,No,No
Surface Convection Parameters,UNDERFLOOR_VOID_SPACE_WALL_3_0_0,0,58.23,74.17,4.12,0,1.12,121.03,16.56,0.00,0,No,No
Surface Convection Parameters,UNDERFLOOR_VOID_SPACE_WALL_3_0_0_0_0_0_SUBSURFACE,0,58.23,74.17,4.12,0,1.12,121.03,16.56,0.00,0,No,No
Surface Convection Parameters,UNDERFLOOR_VOID_SPACE_WALL_4_0_0,0,165.57,100.64,4.12,0,1.12,121.03,16.56,0.00,0,No,No
Surface Convection Parameters,UNDERFLOOR_VOID_SPACE_WALL_4_0_0_0_0_0_SUBSURFACE,0,165.57,100.64,4.12,0,1.12,121.03,16.56,0.00,0,No,No
Surface Convection Parameters,UNDERFLOOR_VOID_SPACE_WALL_5_0_0,0,68.78,99.02,4.12,0,1.12,121.03,16.56,0.00,0,No,No
Surface Convection Parameters,UNDERFLOOR_VOID_SPACE_WALL_5_0_0_0_0_0_SUBSURFACE,0,68.78,99.02,4.12,0,1.12,121.03,16.56,0.00,0,No,No
Surface Convection Parameters,UNDERFLOOR_VOID_SPACE_WALL_6_0_0,0,165.58,96.27,4.12,0,1.12,121.03,16.56,0.00,0,No,No
Surface Convection Parameters,UNDERFLOOR_VOID_SPACE_WALL_6_0_0_0_0_0_SUBSURFACE,0,165.58,96.27,4.12,0,1.12,121.03,16.56,0.00,0,No,No
Surface Convection Parameters,UNDERFLOOR_VOID_SPACE_PARTITION_7_0_0,0,0.00,0.00,0.00,0,1.12,121.03,16.56,0.00,0,No,No
Surface Convection Parameters,UNDERFLOOR_VOID_SPACE_WALL_7_1_0,0,58.23,74.17,4.12,0,1.12,121.03,16.56,0.00,0,No,No
Surface Convection Parameters,UNDERFLOOR_VOID_SPACE_WALL_7_1_1,0,58.23,74.17,4.12,0,1.12,121.03,16.56,0.00,0,No,No
Surface Convection Parameters,UNDERFLOOR_VOID_SPACE_FLOOR_0_0_0,0,0.00,0.00,0.00,0,1.12,121.03,16.56,0.00,0,No,No
Surface Convection Parameters,UNDERFLOOR_VOID_SPACE_FLOOR_0_0_1,0,0.00,0.00,0.00,0,1.12,121.03,16.56,0.00,0,No,No
Surface Convection Parameters,UNDERFLOOR_VOID_SPACE_CEILING_CENTRAL,0,0.00,0.00,0.00,0,1.12,121.03,16.56,0.00,0,No,No
Surface Convection Parameters,UNDERFLOOR_VOID_SPACE_CEILING_NEOFF,0,0.00,0.00,0.00,0,1.12,121.03,16.56,0.00,0,No,No
Surface Convection Parameters,UNDERFLOOR_VOID_SPACE_CEILING_SEOFF,0,0.00,0.00,0.00,0,1.12,121.03,16.56,0.00,0,No,No
Surface Convection Parameters,UNDERFLOOR_VOID_SPACE_CEILING_NWOFF,0,0.00,0.00,0.00,0,1.12,121.03,16.56,0.00,0,No,No
Surface Convection Parameters,UNDERFLOOR_VOID_SPACE_CEILING_SWOFF,0,0.00,0.00,0.00,0,1.12,121.03,16.56,0.00,0,No,No
Surface Convection Parameters,UNDERFLOOR_VOID_SPACE_CEILING_LARGECONF,0,0.00,0.00,0.00,0,1.12,121.03,16.56,0.00,0,No,No
Surface Convection Parameters,ROOFS1_FLOOR_0_1_0,0,0.00,0.00,0.00,0,0.71,0.00,2.71,-999.00,0,No,No
Surface Convection Parameters,ROOFS1_FLOOR_0_1_0_0_0_1_HOLE,54,0.00,0.00,0.00,54,0.71,0.00,2.71,-999.00,0,No,No
Surface Convection Parameters,ROOFS1_FLOOR_0_2_0,0,0.00,0.00,0.00,0,0.71,0.00,2.71,-999.00,0,No,No
Surface Convection Parameters,ROOFS1_ROOF_1_0_0,0,700.15,107.54,1.30,0,0.71,0.00,2.71,-999.00,0,No,No
Surface Convection Parameters,ROOFS1_ROOF_2_0_0,0,700.15,107.54,1.30,0,0.71,0.00,2.71,-999.00,0,No,No
Surface Convection Parameters,ROOFS1_ROOF_3_0_0,0,700.15,107.54,1.30,0,0.71,0.00,2.71,-999.00,0,No,No
Surface Convection Parameters,ROOFS1_ROOF_4_0_0,0,700.15,107.54,1.30,0,0.71,0.00,2.71,-999.00,0,No,No
Surface Convection Parameters,ROOFS1_ROOF_5_0_0,0,700.15,107.54,1.30,0,0.71,0.00,2.71,-999.00,0,No,No
Surface Convection Parameters,ROOFS2_FLOOR_0_1_0,0,0.00,0.00,0.00,0,0.71,0.00,9.79E-003,-999.00,0,No,No
Surface Convection Parameters,ROOFS2_FLOOR_0_1_0_0_0_1_HOLE,52,0.00,0.00,0.00,52,0.71,0.00,9.79E-003,-999.00,0,No,No
Surface Convection Parameters,ROOFS2_FLOOR_0_2_0,0,0.00,0.00,0.00,0,0.71,0.00,9.79E-003,-999.00,0,No,No
Surface Convection Parameters,ROOFS2_FLOOR_0_2_0_0_0_2_HOLE,50,0.00,0.00,0.00,50,0.71,0.00,9.79E-003,-999.00,0,No,No
Surface Convection Parameters,ROOFS2_ROOF_1_0_0,0,700.15,107.54,1.30,0,0.71,0.00,9.79E-003,-999.00,0,No,No
Surface Convection Parameters,ROOFS2_ROOF_2_0_0,0,700.15,107.54,1.30,0,0.71,0.00,9.79E-003,-999.00,0,No,No
Surface Convection Parameters,ROOFS2_ROOF_3_0_0,0,700.15,107.54,1.30,0,0.71,0.00,9.79E-003,-999.00,0,No,No
Surface Convection Parameters,ROOFS2_ROOF_4_0_0,0,700.15,107.54,1.30,0,0.71,0.00,9.79E-003,-999.00,0,No,No
Surface Convection Parameters,ROOFS2_ROOF_5_0_0,0,700.15,107.54,1.30,0,0.71,0.00,9.79E-003,-999.00,0,No,No
Surface Convection Parameters,ROOFS3_FLOOR_0_1_0,0,0.00,0.00,0.00,0,0.71,0.00,9.79E-003,-999.00,0,No,No
Surface Convection Parameters,ROOFS3_FLOOR_0_1_0_0_0_1_HOLE,48,0.00,0.00,0.00,48,0.71,0.00,9.79E-003,-999.00,0,No,No
Surface Convection Parameters,ROOFS3_FLOOR_0_2_0,0,0.00,0.00,0.00,0,0.71,0.00,9.79E-003,-999.00,0,No,No
Surface Convection Parameters,ROOFS3_FLOOR_0_2_0_0_0_2_HOLE,46,0.00,0.00,0.00,46,0.71,0.00,9.79E-003,-999.00,0,No,No
Surface Convection Parameters,ROOFS3_ROOF_1_0_0,0,700.15,107.54,1.30,0,0.71,0.00,9.79E-003,-999.00,0,No,No
Surface Convection Parameters,ROOFS3_ROOF_2_0_0,0,700.15,107.54,1.30,0,0.71,0.00,9.79E-003,-999.00,0,No,No
Surface Convection Parameters,ROOFS3_ROOF_3_0_0,0,700.15,107.54,1.30,0,0.71,0.00,9.79E-003,-999.00,0,No,No
Surface Convection Parameters,ROOFS3_ROOF_4_0_0,0,700.15,107.54,1.30,0,0.71,0.00,9.79E-003,-999.00,0,No,No
Surface Convection Parameters,ROOFS3_ROOF_5_0_0,0,700.15,107.54,1.30,0,0.71,0.00,9.79E-003,-999.00,0,No,No
Surface Convection Parameters,ROOFS0_FLOOR_0_1_0,0,0.00,0.00,0.00,0,0.71,0.00,9.79E-003,-999.00,0,No,No
Surface Convection Parameters,ROOFS0_FLOOR_0_1_0_0_0_1_HOLE,44,0.00,0.00,0.00,44,0.71,0.00,9.79E-003,-999.00,0,No,No
Surface Convection Parameters,ROOFS0_FLOOR_0_2_0,0,0.00,0.00,0.00,0,0.71,0.00,9.79E-003,-999.00,0,No,No
Surface Convection Parameters,ROOFS0_FLOOR_0_2_0_0_0_2_HOLE,42,0.00,0.00,0.00,42,0.71,0.00,9.79E-003,-999.00,0,No,No
Surface Convection Parameters,ROOFS0_ROOF_1_0_0,0,700.15,107.54,1.30,0,0.71,0.00,9.79E-003,-999.00,0,No,No
Surface Convection Parameters,ROOFS0_ROOF_2_0_0,0,700.15,107.54,1.30,0,0.71,0.00,9.79E-003,-999.00,0,No,No
Surface Convection Parameters,ROOFS0_ROOF_3_0_0,0,700.15,107.54,1.30,0,0.71,0.00,9.79E-003,-999.00,0,No,No
Surface Convection Parameters,ROOFS0_ROOF_4_0_0,0,700.15,107.54,1.30,0,0.71,0.00,9.79E-003,-999.00,0,No,No
Surface Convection Parameters,ROOFS0_ROOF_5_0_0,0,700.15,107.54,1.30,0,0.71,0.00,9.79E-003,-999.00,0,No,No
Surface Convection Parameters,ROOFS4_FLOOR_0_1_0,0,0.00,0.00,0.00,0,0.71,0.00,9.79E-003,-999.00,0,No,No
Surface Convection Parameters,ROOFS4_FLOOR_0_1_0_0_0_1_HOLE,40,0.00,0.00,0.00,40,0.71,0.00,9.79E-003,-999.00,0,No,No
Surface Convection Parameters,ROOFS4_FLOOR_0_2_0,0,0.00,0.00,0.00,0,0.71,0.00,9.79E-003,-999.00,0,No,No
Surface Convection Parameters,ROOFS4_FLOOR_0_2_0_0_0_2_HOLE,38,0.00,0.00,0.00,38,0.71,0.00,9.79E-003,-999.00,0,No,No
Surface Convection Parameters,ROOFS4_ROOF_1_0_0,0,700.15,107.54,1.30,0,0.71,0.00,9.79E-003,-999.00,0,No,No
Surface Convection Parameters,ROOFS4_ROOF_2_0_0,0,700.15,107.54,1.30,0,0.71,0.00,9.79E-003,-999.00,0,No,No
Surface Convection Parameters,ROOFS4_ROOF_3_0_0,0,700.15,107.54,1.30,0,0.71,0.00,9.79E-003,-999.00,0,No,No
Surface Convection Parameters,ROOFS4_ROOF_4_0_0,0,700.15,107.54,1.30,0,0.71,0.00,9.79E-003,-999.00,0,No,No
Surface Convection Parameters,ROOFS4_ROOF_5_0_0,0,700.15,107.54,1.30,0,0.71,0.00,9.79E-003,-999.00,0,No,No
Surface Convection Parameters,ROOFN0_FLOOR_0_1_0,0,0.00,0.00,0.00,0,0.74,0.00,0.39,-999.00,0,No,No
Surface Convection Parameters,ROOFN0_FLOOR_0_1_0_0_0_1_HOLE,36,0.00,0.00,0.00,36,0.74,0.00,0.39,-999.00,0,No,No
Surface Convection Parameters,ROOFN0_FLOOR_0_2_0,0,0.00,0.00,0.00,0,0.74,0.00,0.39,-999.00,0,No,No
Surface Convection Parameters,ROOFN0_FLOOR_0_2_0_0_0_2_HOLE,34,0.00,0.00,0.00,34,0.74,0.00,0.39,-999.00,0,No,No
Surface Convection Parameters,ROOFN0_FLOOR_0_3_0,0,0.00,0.00,0.00,0,0.74,0.00,0.39,-999.00,0,No,No
Surface Convection Parameters,ROOFN0_FLOOR_0_3_0_HOLE,24,0.00,0.00,0.00,24,0.74,0.00,0.39,-999.00,0,No,No
Surface Convection Parameters,ROOFN0_ROOF_1_0_0,0,700.15,107.54,1.30,0,0.74,0.00,0.39,-999.00,0,No,No
Surface Convection Parameters,ROOFN0_ROOF_2_0_0,0,700.15,107.54,1.30,0,0.74,0.00,0.39,-999.00,0,No,No
Surface Convection Parameters,ROOFN0_ROOF_2_0_0_0_0_0_WIN,0,700.15,107.54,1.30,0,0.74,0.00,0.39,-999.00,0,No,No
Surface Convection Parameters,ROOFN0_ROOF_2_0_0_1_0_1_WIN,0,700.15,107.54,1.30,0,0.74,0.00,0.39,-999.00,0,No,No
Surface Convection Parameters,ROOFN0_ROOF_2_0_0_2_0_2_WIN,0,700.15,107.54,1.30,0,0.74,0.00,0.39,-999.00,0,No,No
Surface Convection Parameters,ROOFN0_ROOF_2_0_0_3_0_3_WIN,0,700.15,107.54,1.30,0,0.74,0.00,0.39,-999.00,0,No,No
Surface Convection Parameters,ROOFN0_ROOF_2_0_0_4_0_4_WIN,0,700.15,107.54,1.30,0,0.74,0.00,0.39,-999.00,0,No,No
Surface Convection Parameters,ROOFN0_ROOF_3_0_0,0,700.15,107.54,1.30,0,0.74,0.00,0.39,-999.00,0,No,No
Surface Convection Parameters,ROOFN0_ROOF_4_0_0,0,700.15,107.54,1.30,0,0.74,0.00,0.39,-999.00,0,No,No
Surface Convection Parameters,ROOFN0_ROOF_4_0_0_0_0_0_WIN,0,700.15,107.54,1.30,0,0.74,0.00,0.39,-999.00,0,No,No
Surface Convection Parameters,ROOFN0_ROOF_4_0_0_1_0_1_WIN,0,700.15,107.54,1.30,0,0.74,0.00,0.39,-999.00,0,No,No
Surface Convection Parameters,ROOFN0_ROOF_4_0_0_2_0_2_WIN,0,700.15,107.54,1.30,0,0.74,0.00,0.39,-999.00,0,No,No
Surface Convection Parameters,ROOFN0_ROOF_4_0_0_3_0_3_WIN,0,700.15,107.54,1.30,0,0.74,0.00,0.39,-999.00,0,No,No
Surface Convection Parameters,ROOFN0_ROOF_4_0_0_4_0_4_WIN,0,700.15,107.54,1.30,0,0.74,0.00,0.39,-999.00,0,No,No
Surface Convection Parameters,ROOFN0_ROOF_5_0_0,0,700.15,107.54,1.30,0,0.74,0.00,0.39,-999.00,0,No,No
Surface Convection Parameters,ROOFN3_FLOOR_0_0_0,0,0.00,0.00,0.00,0,0.72,0.00,1.06E-002,-999.00,0,No,No
Surface Convection Parameters,ROOFN3_FLOOR_0_0_0_0_0_0_HOLE,31,0.00,0.00,0.00,31,0.72,0.00,1.06E-002,-999.00,0,No,No
Surface Convection Parameters,ROOFN3_FLOOR_0_1_0,0,0.00,0.00,0.00,0,0.72,0.00,1.06E-002,-999.00,0,No,No
Surface Convection Parameters,ROOFN3_FLOOR_0_1_0_0_0_1_HOLE,29,0.00,0.00,0.00,29,0.72,0.00,1.06E-002,-999.00,0,No,No
Surface Convection Parameters,ROOFN3_ROOF_1_0_0,0,700.15,107.54,1.30,0,0.72,0.00,1.06E-002,-999.00,0,No,No
Surface Convection Parameters,ROOFN3_ROOF_2_0_0,0,700.15,107.54,1.30,0,0.72,0.00,1.06E-002,-999.00,0,No,No
Surface Convection Parameters,ROOFN3_ROOF_3_0_0,0,700.15,107.54,1.30,0,0.72,0.00,1.06E-002,-999.00,0,No,No
Surface Convection Parameters,ROOFN3_ROOF_4_0_0,0,700.15,107.54,1.30,0,0.72,0.00,1.06E-002,-999.00,0,No,No
Surface Convection Parameters,ROOFN3_ROOF_5_0_0,0,700.15,107.54,1.30,0,0.72,0.00,1.06E-002,-999.00,0,No,No
Surface Convection Parameters,ROOFN1_FLOOR_0_1_0,0,0.00,0.00,0.00,0,0.73,0.00,1.13,-999.00,0,No,No
Surface Convection Parameters,ROOFN1_FLOOR_0_1_0_0_0_1_HOLE,27,0.00,0.00,0.00,27,0.73,0.00,1.13,-999.00,0,No,No
Surface Convection Parameters,ROOFN1_FLOOR_0_2_0,0,0.00,0.00,0.00,0,0.73,0.00,1.13,-999.00,0,No,No
Surface Convection Parameters,ROOFN1_FLOOR_0_2_0_0_0_2_HOLE,25,0.00,0.00,0.00,25,0.73,0.00,1.13,-999.00,0,No,No
Surface Convection Parameters,ROOFN1_FLOOR_0_3_0,0,0.00,0.00,0.00,0,0.73,0.00,1.13,-999.00,0,No,No
Surface Convection Parameters,ROOFN1_FLOOR_0_3_0_0_0_3_HOLE,21,0.00,0.00,0.00,21,0.73,0.00,1.13,-999.00,0,No,No
Surface Convection Parameters,ROOFN1_ROOF_1_0_0,0,700.15,107.54,1.30,0,0.73,0.00,1.13,-999.00,0,No,No
Surface Convection Parameters,ROOFN1_ROOF_2_0_0,0,700.15,107.54,1.30,0,0.73,0.00,1.13,-999.00,0,No,No
Surface Convection Parameters,ROOFN1_ROOF_2_0_0_0_0_0_WIN,0,700.15,107.54,1.30,0,0.73,0.00,1.13,-999.00,0,No,No
Surface Convection Parameters,ROOFN1_ROOF_2_0_0_1_0_1_WIN,0,700.15,107.54,1.30,0,0.73,0.00,1.13,-999.00,0,No,No
Surface Convection Parameters,ROOFN1_ROOF_2_0_0_2_0_2_WIN,0,700.15,107.54,1.30,0,0.73,0.00,1.13,-999.00,0,No,No
Surface Convection Parameters,ROOFN1_ROOF_3_0_0,0,700.15,107.54,1.30,0,0.73,0.00,1.13,-999.00,0,No,No
Surface Convection Parameters,ROOFN1_ROOF_4_0_0,0,700.15,107.54,1.30,0,0.73,0.00,1.13,-999.00,0,No,No
Surface Convection Parameters,ROOFN1_ROOF_4_0_0_0_0_0_WIN,0,700.15,107.54,1.30,0,0.73,0.00,1.13,-999.00,0,No,No
Surface Convection Parameters,ROOFN1_ROOF_4_0_0_1_0_1_WIN,0,700.15,107.54,1.30,0,0.73,0.00,1.13,-999.00,0,No,No
Surface Convection Parameters,ROOFN1_ROOF_4_0_0_2_0_2_WIN,0,700.15,107.54,1.30,0,0.73,0.00,1.13,-999.00,0,No,No
Surface Convection Parameters,ROOFN1_ROOF_5_0_0,0,700.15,107.54,1.30,0,0.73,0.00,1.13,-999.00,0,No,No
Surface Convection Parameters,ROOFN2_FLOOR_0_0_0,0,0.00,0.00,0.00,0,0.73,0.00,1.19E-002,-999.00,0,No,No
Surface Convection Parameters,ROOFN2_FLOOR_0_0_0_0_0_0_HOLE,20,0.00,0.00,0.00,20,0.73,0.00,1.19E-002,-999.00,0,No,No
Surface Convection Parameters,ROOFN2_FLOOR_0_1_0,0,0.00,0.00,0.00,0,0.73,0.00,1.19E-002,-999.00,0,No,No
Surface Convection Parameters,ROOFN2_FLOOR_0_1_0_0_0_1_HOLE,18,0.00,0.00,0.00,18,0.73,0.00,1.19E-002,-999.00,0,No,No
Surface Convection Parameters,ROOFN2_ROOF_1_0_0,0,700.15,107.54,1.30,0,0.73,0.00,1.19E-002,-999.00,0,No,No
Surface Convection Parameters,ROOFN2_ROOF_2_0_0,0,700.15,107.54,1.30,0,0.73,0.00,1.19E-002,-999.00,0,No,No
Surface Convection Parameters,ROOFN2_ROOF_2_0_0_0_0_0_WIN,0,700.15,107.54,1.30,0,0.73,0.00,1.19E-002,-999.00,0,No,No
Surface Convection Parameters,ROOFN2_ROOF_2_0_0_1_0_1_WIN,0,700.15,107.54,1.30,0,0.73,0.00,1.19E-002,-999.00,0,No,No
Surface Convection Parameters,ROOFN2_ROOF_2_0_0_2_0_2_WIN,0,700.15,107.54,1.30,0,0.73,0.00,1.19E-002,-999.00,0,No,No
Surface Convection Parameters,ROOFN2_ROOF_3_0_0,0,700.15,107.54,1.30,0,0.73,0.00,1.19E-002,-999.00,0,No,No
Surface Convection Parameters,ROOFN2_ROOF_4_0_0,0,700.15,107.54,1.30,0,0.73,0.00,1.19E-002,-999.00,0,No,No
Surface Convection Parameters,ROOFN2_ROOF_4_0_0_0_0_0_WIN,0,700.15,107.54,1.30,0,0.73,0.00,1.19E-002,-999.00,0,No,No
Surface Convection Parameters,ROOFN2_ROOF_4_0_0_1_0_1_WIN,0,700.15,107.54,1.30,0,0.73,0.00,1.19E-002,-999.00,0,No,No
Surface Convection Parameters,ROOFN2_ROOF_4_0_0_2_0_2_WIN,0,700.15,107.54,1.30,0,0.73,0.00,1.19E-002,-999.00,0,No,No
Surface Convection Parameters,ROOFN2_ROOF_5_0_0,0,700.15,107.54,1.30,0,0.73,0.00,1.19E-002,-999.00,0,No,No
Surface Convection Parameters,SWOFF_PARTITION_EAST,0,0.00,0.00,0.00,0,3.00,84.03,7.11,0.49,0,No,No
Surface Convection Parameters,SWOFF_PARTITION_EAST_HOLE,2,0.00,0.00,0.00,2,3.00,84.03,7.11,0.49,0,No,No
Surface Convection Parameters,SWOFF_PARTITION_NORTH,0,0.00,0.00,0.00,0,3.00,84.03,7.11,0.49,0,No,No
Surface Convection Parameters,SWOFF_PARTITION_NORTH_HOLE,3,0.00,0.00,0.00,3,3.00,84.03,7.11,0.49,0,No,No
Surface Convection Parameters,SWOFF_WALL_WEST_TOP_MULL,0,165.58,96.27,4.12,0,3.00,84.03,7.11,0.49,4,No,No
Surface Convection Parameters,SWOFF_WALL_WEST_BOT_MULL,0,165.58,96.27,4.12,0,3.00,84.03,7.11,0.49,3,No,No
Surface Convection Parameters,SWOFF_WALL_WEST_MID,0,165.58,96.27,4.12,0,3.00,84.03,7.11,0.49,4,No,No
Surface Convection Parameters,SWOFF_WALL_WEST_WIN_TOP,0,165.58,96.27,4.12,0,3.00,84.03,7.11,0.49,2,No,No
Surface Convection Parameters,SWOFF_WALL_WEST_WIN_BOT,0,165.58,96.27,4.12,0,3.00,84.03,7.11,0.49,1,No,No
Surface Convection Parameters,SWOFF_WALL_SOUTH_MID,0,58.23,74.17,4.12,0,3.00,84.03,7.11,0.49,3,No,No
Surface Convection Parameters,SWOFF_WALL_SOUTH_WIN,0,58.23,74.17,4.12,0,3.00,84.03,7.11,0.49,2,No,No
Surface Convection Parameters,SWOFF_WALL_SOUTH_TOP_MULL,0,58.23,74.17,4.12,0,3.00,84.03,7.11,0.49,4,No,No
Surface Convection Parameters,SWOFF_WALL_SOUTH_BOT_MULL,0,58.23,74.17,4.12,0,3.00,84.03,7.11,0.49,3,No,No
Surface Convection Parameters,SWOFF_DOOR,0,0.00,0.00,0.00,0,3.00,84.03,7.11,0.49,0,No,No
Surface Convection Parameters,SWOFF_FLOOR,0,0.00,0.00,0.00,0,3.00,84.03,7.11,0.49,0,No,No
Surface Convection Parameters,OFF-OMER_CEILING_1_0_10028,0,0.00,0.00,0.00,0,3.00,84.03,7.11,0.49,0,No,No
Surface Convection Parameters,SWOFF_CEILING_1_0_10033,0,0.00,0.00,0.00,0,3.00,84.03,7.11,0.49,0,No,No
Surface Convection Parameters,SWOFF_CEILING_1_0_0_0_0_0_HOLE_10035,49,0.00,0.00,0.00,49,3.00,84.03,7.11,0.49,0,No,No
Surface Convection Parameters,OFF-VIVIAN_CEILING_1_0_10039,0,0.00,0.00,0.00,0,3.00,84.03,7.11,0.49,0,No,No
Surface Convection Parameters,OFF-VIVIAN_CEILING_1_0_0_0_0_0_HOLE_10041,45,0.00,0.00,0.00,45,3.00,84.03,7.11,0.49,0,No,No
Surface Convection Parameters,SMALLCONF_CEILING_1_0_10045,0,0.00,0.00,0.00,0,3.00,84.03,7.11,0.49,0,No,No
Surface Convection Parameters,SMALLCONF_CEILING_1_0_0_0_0_0_HOLE_10047,41,0.00,0.00,0.00,41,3.00,84.03,7.11,0.49,0,No,No
Surface Convection Parameters,OFF-JAMES_CEILING_1_0_10051,0,0.00,0.00,0.00,0,3.00,84.03,7.11,0.49,0,No,No
Surface Convection Parameters,OFF-JAMES_CEILING_1_0_0_0_0_0_HOLE_10053,37,0.00,0.00,0.00,37,3.00,84.03,7.11,0.49,0,No,No
Surface Convection Parameters,SWOFF_INTMASS,0,0.00,0.00,0.00,0,3.00,84.03,7.11,0.49,0,No,No
Surface Convection Parameters,SEOFF_PARTITION_WEST,0,0.00,0.00,0.00,0,3.00,84.03,7.11,0.49,0,No,No
Surface Convection Parameters,SEOFF_PARTITION_WEST_HOLE,1,0.00,0.00,0.00,1,3.00,84.03,7.11,0.49,0,No,No
Surface Convection Parameters,SEOFF_PARTITION_NORTH,0,0.00,0.00,0.00,0,3.00,84.03,7.11,0.49,0,No,No
Surface Convection Parameters,SEOFF_PARTITION_NORTH_HOLE,15,0.00,0.00,0.00,15,3.00,84.03,7.11,0.49,0,No,No
Surface Convection Parameters,SEOFF_WALL_EAST_MID,0,165.57,100.64,4.12,0,3.00,84.03,7.11,0.49,3,No,No
Surface Convection Parameters,SEOFF_WALL_EAST_WIN_BOT,0,165.57,100.64,4.12,0,3.00,84.03,7.11,0.49,1,No,No
Surface Convection Parameters,SEOFF_WALL_EAST_WIN_TOP,0,165.57,100.64,4.12,0,3.00,84.03,7.11,0.49,2,No,No
Surface Convection Parameters,SEOFF_WALL_EAST_TOP_MULL,0,165.57,100.64,4.12,0,3.00,84.03,7.11,0.49,4,No,No
Surface Convection Parameters,SEOFF_WALL_EAST_BOT_MULL,0,165.57,100.64,4.12,0,3.00,84.03,7.11,0.49,3,No,No
Surface Convection Parameters,SEOFF_WALL_SOUTH_MID,0,58.23,74.17,4.12,0,3.00,84.03,7.11,0.49,3,No,No
Surface Convection Parameters,SEOFF_WALL_SOUTH_WIN,0,58.23,74.17,4.12,0,3.00,84.03,7.11,0.49,2,No,No
Surface Convection Parameters,SEOFF_WALL_SOUTH_TOP_MULL,0,58.23,74.17,4.12,0,3.00,84.03,7.11,0.49,4,No,No
Surface Convection Parameters,SEOFF_WALL_SOUTH_BOT_MULL,0,58.23,74.17,4.12,0,3.00,84.03,7.11,0.49,3,No,No
Surface Convection Parameters,SEOFF_DOOR,0,0.00,0.00,0.00,0,3.00,84.03,7.11,0.49,0,No,No
Surface Convection Parameters,SEOFF_FLOOR,0,0.00,0.00,0.00,0,3.00,84.03,7.11,0.49,0,No,No
Surface Convection Parameters,OFF-ZHIANG_CEILING_1_0_10026,0,0.00,0.00,0.00,0,3.00,84.03,7.11,0.49,0,No,No
Surface Convection Parameters,OFF-ZHIANG_CEILING_1_0_0_0_0_0_HOLE_10028,53,0.00,0.00,0.00,53,3.00,84.03,7.11,0.49,0,No,No
Surface Convection Parameters,OFF-WEILI_CEILING_1_0_10031,0,0.00,0.00,0.00,0,3.00,84.03,7.11,0.49,0,No,No
Surface Convection Parameters,OFF-WEILI_CEILING_1_0_0_0_0_0_HOLE_10033,51,0.00,0.00,0.00,51,3.00,84.03,7.11,0.49,0,No,No
Surface Convection Parameters,OFF-BAPP_CEILING_1_0_10037,0,0.00,0.00,0.00,0,3.00,84.03,7.11,0.49,0,No,No
Surface Convection Parameters,OFF-BAPP_CEILING_1_0_0_0_0_0_HOLE_10039,47,0.00,0.00,0.00,47,3.00,84.03,7.11,0.49,0,No,No
Surface Convection Parameters,OFF-NINA_CEILING_1_0_10043,0,0.00,0.00,0.00,0,3.00,84.03,7.11,0.49,0,No,No
Surface Convection Parameters,OFF-NINA_CEILING_1_0_0_0_0_0_HOLE_10045,43,0.00,0.00,0.00,43,3.00,84.03,7.11,0.49,0,No,No
Surface Convection Parameters,OFF-YUJIE_CEILING_1_0_10049,0,0.00,0.00,0.00,0,3.00,84.03,7.11,0.49,0,No,No
Surface Convection Parameters,OFF-YUJIE_CEILING_1_0_0_0_0_0_HOLE_10051,39,0.00,0.00,0.00,39,3.00,84.03,7.11,0.49,0,No,No
Surface Convection Parameters,SEOFF_INTMASS,0,0.00,0.00,0.00,0,3.00,84.03,7.11,0.49,0,No,No
Surface Convection Parameters,NWOFF_PARTITION_SOUTH,0,0.00,0.00,0.00,0,3.00,30.00,5.67,0.49,0,No,No
Surface Convection Parameters,NWOFF_PARTITION_SOUTH_HOLE,4,0.00,0.00,0.00,4,3.00,30.00,5.67,0.49,0,No,No
Surface Convection Parameters,NWOFF_PARTITION_EAST,0,0.00,0.00,0.00,0,3.00,30.00,5.67,0.49,0,No,No
Surface Convection Parameters,NWOFF_PARTITION_EAST_HOLE,7,0.00,0.00,0.00,7,3.00,30.00,5.67,0.49,0,No,No
Surface Convection Parameters,NWOFF_PARTITION_NORTH,0,0.00,0.00,0.00,0,3.00,30.00,5.67,0.49,0,No,No
Surface Convection Parameters,NWOFF_PARTITION_NORTH_HOLE,5,0.00,0.00,0.00,5,3.00,30.00,5.67,0.49,0,No,No
Surface Convection Parameters,NWOFF_WALL_MID,0,165.58,96.27,4.12,0,3.00,30.00,5.67,0.49,4,No,No
Surface Convection Parameters,NWOFF_WALL_MID_WIN_TOP,0,165.58,96.27,4.12,0,3.00,30.00,5.67,0.49,2,No,No
Surface Convection Parameters,NWOFF_WALL_MID_WIN_BOT,0,165.58,96.27,4.12,0,3.00,30.00,5.67,0.49,1,No,No
Surface Convection Parameters,NWOFF_WALL_TOP_MULL,0,165.58,96.27,4.12,0,3.00,30.00,5.67,0.49,4,No,No
Surface Convection Parameters,NWOFF_WALL_BOT_MULL,0,165.58,96.27,4.12,0,3.00,30.00,5.67,0.49,3,No,No
Surface Convection Parameters,NWOFF_FLOOR,0,0.00,0.00,0.00,0,3.00,30.00,5.67,0.49,0,No,No
Surface Convection Parameters,NWOFF_SOUTH_CEILING_1_0_10057,0,0.00,0.00,0.00,0,3.00,30.00,5.67,0.49,0,No,No
Surface Convection Parameters,OFF-ERICA_CEILING_1_0_0_0_0_0_HOLE_10059,33,0.00,0.00,0.00,33,3.00,30.00,5.67,0.49,0,No,No
Surface Convection Parameters,OFF-VOLKER_CEILING_1_0_10069,0,0.00,0.00,0.00,0,3.00,30.00,5.67,0.49,0,No,No
Surface Convection Parameters,OFF-VOLKER_CEILING_1_0_0_0_0_0_HOLE_10071,32,0.00,0.00,0.00,32,3.00,30.00,5.67,0.49,0,No,No
Surface Convection Parameters,NWOFF_INTMASS,0,0.00,0.00,0.00,0,3.00,30.00,5.67,0.49,0,No,No
Surface Convection Parameters,NEOFF_PARTITION_WEST_NORTH,0,0.00,0.00,0.00,0,3.00,86.13,5.83,0.49,0,No,No
Surface Convection Parameters,NEOFF_PARTITION_WEST_NORTH_HOLE,12,0.00,0.00,0.00,12,3.00,86.13,5.83,0.49,0,No,No
Surface Convection Parameters,NEOFF_PARTITION_WEST_SOUTH,0,0.00,0.00,0.00,0,3.00,86.13,5.83,0.49,0,No,No
Surface Convection Parameters,NEOFF_PARTITION_WEST_SOUTH_HOLE,13,0.00,0.00,0.00,13,3.00,86.13,5.83,0.49,0,No,No
Surface Convection Parameters,NEOFF_WALL_EAST_BOT_MULL,0,165.57,100.64,4.12,0,3.00,86.13,5.83,0.49,3,No,No
Surface Convection Parameters,NEOFF_WALL_EAST_MID,0,165.57,100.64,4.12,0,3.00,86.13,5.83,0.49,4,No,No
Surface Convection Parameters,NEOFF_WALL_EAST_WIN_TOP,0,165.57,100.64,4.12,0,3.00,86.13,5.83,0.49,2,No,No
Surface Convection Parameters,NEOFF_WALL_EAST_WIN_BOT,0,165.57,100.64,4.12,0,3.00,86.13,5.83,0.49,1,No,No
Surface Convection Parameters,NEOFF_WALL_EAST_TOP_MULL,0,165.57,100.64,4.12,0,3.00,86.13,5.83,0.49,4,No,No
Surface Convection Parameters,NEOFF_WALL_NORTH_MID,0,68.78,99.02,4.12,0,3.00,86.13,5.83,0.49,3,No,No
Surface Convection Parameters,NEOFF_WALL_NORTH_WIN,0,68.78,99.02,4.12,0,3.00,86.13,5.83,0.49,2,No,No
Surface Convection Parameters,NEOFF_WALL_NORTH_TOP_MULL,0,68.78,99.02,4.12,0,3.00,86.13,5.83,0.49,4,No,No
Surface Convection Parameters,NEOFF_WALL_NORTH_BOT_MULL,0,68.78,99.02,4.12,0,3.00,86.13,5.83,0.49,3,No,No
Surface Convection Parameters,NEOFF_WALL_SOUTH_MID,0,58.23,74.17,4.12,0,3.00,86.13,5.83,0.49,3,No,No
Surface Convection Parameters,NEOFF_WALL_SOUTH_WIN_BOT,0,58.23,74.17,4.12,0,3.00,86.13,5.83,0.49,1,No,No
Surface Convection Parameters,NEOFF_WALL_SOUTH_WIN_TOP,0,58.23,74.17,4.12,0,3.00,86.13,5.83,0.49,2,No,No
Surface Convection Parameters,NEOFF_WALL_SOUTH_TOP_MULL,0,58.23,74.17,4.12,0,3.00,86.13,5.83,0.49,4,No,No
Surface Convection Parameters,NEOFF_WALL_SOUTH_BOT_MULL,0,58.23,74.17,4.12,0,3.00,86.13,5.83,0.49,3,No,No
Surface Convection Parameters,NEOFF_FLOOR,0,0.00,0.00,0.00,0,3.00,86.13,5.83,0.49,0,No,No
Surface Convection Parameters,NEOFF_SOUTH_CEILING_1_0_10055,0,0.00,0.00,0.00,0,3.00,86.13,5.83,0.49,0,No,No
Surface Convection Parameters,NEOFF_SOUTH_CEILING_1_0_10055_HOLE,23,0.00,0.00,0.00,23,3.00,86.13,5.83,0.49,0,No,No
Surface Convection Parameters,NEOFF_NORTH_CEILING_1_0_10061,0,0.00,0.00,0.00,0,3.00,86.13,5.83,0.49,0,No,No
Surface Convection Parameters,OFF-ANNIE_CEILING_1_0_0_0_0_0_HOLE_10063,28,0.00,0.00,0.00,28,3.00,86.13,5.83,0.49,0,No,No
Surface Convection Parameters,BAS_CEILING_1_0_10067,0,0.00,0.00,0.00,0,3.00,86.13,5.83,0.49,0,No,No
Surface Convection Parameters,BAS_CEILING_1_0_0_0_0_0_HOLE_10069,22,0.00,0.00,0.00,22,3.00,86.13,5.83,0.49,0,No,No
Surface Convection Parameters,OFF-SUREKHA_CEILING_1_0_10073,0,0.00,0.00,0.00,0,3.00,86.13,5.83,0.49,0,No,No
Surface Convection Parameters,OFF-SUREKHA_CEILING_1_0_0_0_0_0_HOLE_10075,17,0.00,0.00,0.00,17,3.00,86.13,5.83,0.49,0,No,No
Surface Convection Parameters,NEOFF_INTMASS,0,0.00,0.00,0.00,0,3.00,86.13,5.83,0.49,0,No,No
Surface Convection Parameters,CENTRAL_PARTITION_WEST,0,0.00,0.00,0.00,0,3.00,8.52,7.34,0.46,0,No,No
Surface Convection Parameters,CENTRAL_PARTITION_WEST_HOLE,8,0.00,0.00,0.00,8,3.00,8.52,7.34,0.46,0,No,No
Surface Convection Parameters,CENTRAL_PARTITION_SOUTH,0,0.00,0.00,0.00,0,3.00,8.52,7.34,0.46,0,No,No
Surface Convection Parameters,CENTRAL_PARTITION_SOUTH_HOLE,16,0.00,0.00,0.00,16,3.00,8.52,7.34,0.46,0,No,No
Surface Convection Parameters,CENTRAL_PARTITION_NORTH,0,0.00,0.00,0.00,0,3.00,8.52,7.34,0.46,0,No,No
Surface Convection Parameters,CENTRAL_PARTITION_NORTH_HOLE,10,0.00,0.00,0.00,10,3.00,8.52,7.34,0.46,0,No,No
Surface Convection Parameters,CENTRAL_PARTITION_EAST,0,0.00,0.00,0.00,0,3.00,8.52,7.34,0.46,0,No,No
Surface Convection Parameters,CENTRAL_PARTITION_EAST_HOLE,14,0.00,0.00,0.00,14,3.00,8.52,7.34,0.46,0,No,No
Surface Convection Parameters,CENTRAL_WALL_SOUTH_BOT_MULL,0,58.23,74.17,4.12,0,3.00,8.52,7.34,0.46,3,No,No
Surface Convection Parameters,CENTRAL_WALL_SOUTH_TOP_MULL,0,58.23,74.17,4.12,0,3.00,8.52,7.34,0.46,4,No,No
Surface Convection Parameters,CENTRAL_WALL_SOUTH_MID,0,58.23,74.17,4.12,0,3.00,8.52,7.34,0.46,4,No,No
Surface Convection Parameters,CENTRAL_WALL_SOUTH_WIN_TOP,0,58.23,74.17,4.12,0,3.00,8.52,7.34,0.46,2,No,No
Surface Convection Parameters,CENTRAL_WALL_SOUTH_WIN_BOT,0,58.23,74.17,4.12,0,3.00,8.52,7.34,0.46,1,No,No
Surface Convection Parameters,CENTRAL_FLOOR,0,0.00,0.00,0.00,0,3.00,8.52,7.34,0.46,0,No,No
Surface Convection Parameters,CENTRAL_SOUTH_CEILING_1_0_10055,0,0.00,0.00,0.00,0,3.00,8.52,7.34,0.46,0,No,No
Surface Convection Parameters,STAIRNCOM_CEILING_1_0_0_0_0_0_HOLE_10057,35,0.00,0.00,0.00,35,3.00,8.52,7.34,0.46,0,No,No
Surface Convection Parameters,CENTRAL_NORTH_CEILING_1_0_10065,0,0.00,0.00,0.00,0,3.00,8.52,7.34,0.46,0,No,No
Surface Convection Parameters,KITCHEN_CEILING_1_0_0_0_0_0_HOLE_10067,26,0.00,0.00,0.00,26,3.00,8.52,7.34,0.46,0,No,No
Surface Convection Parameters,CENTRAL_INTMASS,0,0.00,0.00,0.00,0,3.00,8.52,7.34,0.46,0,No,No
Surface Convection Parameters,LARGECONF_PARTITION_SOUTH_WEST,0,0.00,0.00,0.00,0,3.00,70.42,9.37,0.51,0,No,No
Surface Convection Parameters,LARGECONF_PARTITION_SOUTH_WEST_HOLE,6,0.00,0.00,0.00,6,3.00,70.42,9.37,0.51,0,No,No
Surface Convection Parameters,LARGECONF_PARTITION_EAST,0,0.00,0.00,0.00,0,3.00,70.42,9.37,0.51,0,No,No
Surface Convection Parameters,LARGECONF_PARTITION_EAST_HOLE,11,0.00,0.00,0.00,11,3.00,70.42,9.37,0.51,0,No,No
Surface Convection Parameters,LARGECONF_PARTITION_SOUTH_EAST,0,0.00,0.00,0.00,0,3.00,70.42,9.37,0.51,0,No,No
Surface Convection Parameters,LARGECONF_PARTITION_SOUTH_EAST_HOLE,9,0.00,0.00,0.00,9,3.00,70.42,9.37,0.51,0,No,No
Surface Convection Parameters,LARGECONF_WALL_NORTH_MID,0,68.78,99.02,4.12,0,3.00,70.42,9.37,0.51,3,No,No
Surface Convection Parameters,LARGECONF_WALL_NORTH_WIN,0,68.78,99.02,4.12,0,3.00,70.42,9.37,0.51,5,No,No
Surface Convection Parameters,LARGECONF_WALL_NORTH_TOP_MULL,0,68.78,99.02,4.12,0,3.00,70.42,9.37,0.51,4,No,No
Surface Convection Parameters,LARGECONF_WALL_NORTH_BOT_MULL,0,68.78,99.02,4.12,0,3.00,70.42,9.37,0.51,3,No,No
Surface Convection Parameters,LARGECONF_WALL_WEST_MID,0,165.58,96.27,4.12,0,3.00,70.42,9.37,0.51,3,No,No
Surface Convection Parameters,LARGECONF_WALL_WEST_WIN_BOT,0,165.58,96.27,4.12,0,3.00,70.42,9.37,0.51,5,No,No
Surface Convection Parameters,LARGECONF_WALL_WEST_WIN_TOP,0,165.58,96.27,4.12,0,3.00,70.42,9.37,0.51,5,No,No
Surface Convection Parameters,LARGECONF_WALL_WEST_TOP_MULL,0,165.58,96.27,4.12,0,3.00,70.42,9.37,0.51,4,No,No
Surface Convection Parameters,LARGECONF_WALL_WEST_BOT_MULL,0,165.58,96.27,4.12,0,3.00,70.42,9.37,0.51,3,No,No
Surface Convection Parameters,LARGECONF_FLOOR,0,0.00,0.00,0.00,0,3.00,70.42,9.37,0.51,0,No,No
Surface Convection Parameters,LARGECONF_NORTH_CEILING_1_0_10059,0,0.00,0.00,0.00,0,3.00,70.42,9.37,0.51,0,No,No
Surface Convection Parameters,LARGECONF1_CEILING_1_0_0_0_0_0_HOLE_10061,30,0.00,0.00,0.00,30,3.00,70.42,9.37,0.51,0,No,No
Surface Convection Parameters,LARGECONF_SOUTH_CEILING_1_0_10071,0,0.00,0.00,0.00,0,3.00,70.42,9.37,0.51,0,No,No
Surface Convection Parameters,LARGECONF0_CEILING_1_0_0_0_0_0_HOLE_10073,19,0.00,0.00,0.00,19,3.00,70.42,9.37,0.51,0,No,No
Surface Convection Parameters,LARGECONF_INTMASS,0,0.00,0.00,0.00,0,3.00,70.42,9.37,0.51,0,No,No
! <Infiltration Airflow Stats - Nominal>,Name,Schedule Name,Zone Name, Zone Floor Area {m2}, # Zone Occupants,Design Volume Flow Rate {m3/s},Volume Flow Rate/Floor Area {m3/s/m2},Volume Flow Rate/Exterior Surface Area {m3/s/m2},ACH - Air Changes per Hour,Equation A - Constant Term Coefficient {},Equation B - Temperature Term Coefficient {1/C},Equation C - Velocity Term Coefficient {s/m}, Equation D - Velocity Squared Term Coefficient {s2/m2}
 ZoneInfiltration Airflow Stats, UNDERFLOOR_VOID_SPACE INFILTRATION,INFILTRATION_MAR_MORE,UNDERFLOOR_VOID_SPACE,611.63,0.0,3.330E-002,5.444E-005,1.909E-004,0.175,1.000,0.000,0.000,0.000
 ZoneInfiltration Airflow Stats, ROOFS1 INFILTRATION,INFILTRATION_MAR_MORE,ROOFS1,25.57,0.0,1.572E-003,6.148E-005,2.638E-005,0.175,1.000,0.000,0.000,0.000
 ZoneInfiltration Airflow Stats, ROOFS2 INFILTRATION,INFILTRATION_MAR_MORE,ROOFS2,9.25E-002,0.0,1.572E-003,1.698E-002,2.638E-005,0.175,1.000,0.000,0.000,0.000
 ZoneInfiltration Airflow Stats, ROOFS3 INFILTRATION,INFILTRATION_MAR_MORE,ROOFS3,9.25E-002,0.0,1.572E-003,1.698E-002,2.638E-005,0.175,1.000,0.000,0.000,0.000
 ZoneInfiltration Airflow Stats, ROOFS0 INFILTRATION,INFILTRATION_MAR_MORE,ROOFS0,9.19E-002,0.0,1.543E-003,1.679E-002,2.634E-005,0.175,1.000,0.000,0.000,0.000
 ZoneInfiltration Airflow Stats, ROOFS4 INFILTRATION,INFILTRATION_MAR_MORE,ROOFS4,9.32E-002,0.0,1.603E-003,1.720E-002,2.644E-005,0.175,1.000,0.000,0.000,0.000
 ZoneInfiltration Airflow Stats, ROOFN0 INFILTRATION,INFILTRATION_MAR_MORE,ROOFN0,5.48,0.0,2.963E-003,5.406E-004,2.880E-005,0.175,1.000,0.000,0.000,0.000
 ZoneInfiltration Airflow Stats, ROOFN3 INFILTRATION,INFILTRATION_MAR_MORE,ROOFN3,0.15,0.0,2.967E-003,1.995E-002,2.884E-005,0.175,1.000,0.000,0.000,0.000
 ZoneInfiltration Airflow Stats, ROOFN1 INFILTRATION,INFILTRATION_MAR_MORE,ROOFN1,15.81,0.0,2.963E-003,1.874E-004,2.880E-005,0.175,1.000,0.000,0.000,0.000
 ZoneInfiltration Airflow Stats, ROOFN2 INFILTRATION,INFILTRATION_MAR_MORE,ROOFN2,0.17,0.0,2.963E-003,1.776E-002,2.880E-005,0.175,1.000,0.000,0.000,0.000
 ZoneInfiltration Airflow Stats, CENTRAL INFILTRATION,INFILTRATION_MAR_MORE,CENTRAL,81.55,3.0,1.409E-002,1.728E-004,1.654E-003,0.175,1.000,0.000,0.000,0.000
 ZoneInfiltration Airflow Stats, NEOFF INFILTRATION,INFILTRATION_MAR_MORE,NEOFF,87.00,2.0,2.776E-002,3.190E-004,3.223E-004,0.175,1.000,0.000,0.000,0.000
 ZoneInfiltration Airflow Stats, SEOFF INFILTRATION,INFILTRATION_MAR_MORE,SEOFF,127.61,8.0,8.484E-003,6.648E-005,1.010E-004,0.175,1.000,0.000,0.000,0.000
 ZoneInfiltration Airflow Stats, NWOFF INFILTRATION,INFILTRATION_MAR_MORE,NWOFF,53.15,2.0,2.979E-003,5.606E-005,9.931E-005,0.175,1.000,0.000,0.000,0.000
 ZoneInfiltration Airflow Stats, SWOFF INFILTRATION,INFILTRATION_MAR_MORE,SWOFF,127.61,8.0,8.484E-003,6.648E-005,1.010E-004,0.175,1.000,0.000,0.000,0.000
 ZoneInfiltration Airflow Stats, LARGECONF INFILTRATION,INFILTRATION_MAR_MORE,LARGECONF,134.70,20.0,2.741E-002,2.035E-004,3.892E-004,0.175,1.000,0.000,0.000,0.000
! <Mixing Airflow Stats - Nominal>,Name,Schedule Name,Zone Name, Zone Floor Area {m2}, # Zone Occupants,Design Volume Flow Rate {m3/s},Volume Flow Rate/Floor Area {m3/s/m2},Volume Flow Rate/person Area {m3/s/person},ACH - Air Changes per Hour,From/Source Zone,Delta Temperature {C}
 Mixing Airflow Stats, NWOFF_TO_SWOFF_MIXING,ON 24/7,SWOFF,127.61,8.0,0.485,3.799E-003,6.060E-002,10.000,NWOFF,0.00
 Mixing Airflow Stats, SWOFF_TO_NWOFF_MIXING,ON 24/7,NWOFF,53.15,2.0,0.170,3.203E-003,8.512E-002,10.000,SWOFF,0.00
 Mixing Airflow Stats, NWOFF_TO_CENTRAL_MIXING,ON 24/7,CENTRAL,81.55,3.0,0.805,9.872E-003,0.268,10.000,NWOFF,0.00
 Mixing Airflow Stats, CENTRAL_TO_NWOFF_MIXING,ON 24/7,NWOFF,53.15,2.0,0.170,3.203E-003,8.512E-002,10.000,CENTRAL,0.00
 Mixing Airflow Stats, NWOFF_TO_LARGECONF_MIXING,ON 24/7,LARGECONF,134.70,20.0,1.566,1.163E-002,7.832E-002,10.000,NWOFF,0.00
 Mixing Airflow Stats, LARGECONF_TO_NWOFF_MIXING,ON 24/7,NWOFF,53.15,2.0,0.170,3.203E-003,8.512E-002,10.000,LARGECONF,0.00
 Mixing Airflow Stats, LARGECONF_TO_CENTRAL_MIXING,ON 24/7,CENTRAL,81.55,3.0,0.805,9.872E-003,0.268,10.000,LARGECONF,0.00
 Mixing Airflow Stats, CENTRAL_TO_LARGECONF_MIXING,ON 24/7,LARGECONF,134.70,20.0,1.566,1.163E-002,7.832E-002,10.000,CENTRAL,0.00
 Mixing Airflow Stats, LARGECONF_TO_NEOFF_MIXING,ON 24/7,NEOFF,87.00,2.0,1.586,1.823E-002,0.793,10.000,LARGECONF,0.00
 Mixing Airflow Stats, NEOFF_TO_LARGECONF_MIXING,ON 24/7,LARGECONF,134.70,20.0,1.566,1.163E-002,7.832E-002,10.000,NEOFF,0.00
 Mixing Airflow Stats, NEOFF_TO_CENTRAL_MIXING,ON 24/7,CENTRAL,81.55,3.0,0.805,9.872E-003,0.268,10.000,NEOFF,0.00
 Mixing Airflow Stats, CENTRAL_TO_NEOFF_MIXING,ON 24/7,NEOFF,87.00,2.0,1.586,1.823E-002,0.793,10.000,CENTRAL,0.00
 Mixing Airflow Stats, CENTRAL_TO_SEOFF_MIXING,ON 24/7,SEOFF,127.61,8.0,0.485,3.799E-003,6.060E-002,10.000,CENTRAL,0.00
 Mixing Airflow Stats, SEOFF_TO_CENTRAL_MIXING,ON 24/7,CENTRAL,81.55,3.0,0.805,9.872E-003,0.268,10.000,SEOFF,0.00
 Mixing Airflow Stats, SEOFF_TO_SWOFF_MIXING,ON 24/7,SWOFF,127.61,8.0,0.485,3.799E-003,6.060E-002,10.000,SEOFF,0.00
 Mixing Airflow Stats, SWOFF_TO_SEOFF_MIXING,ON 24/7,SEOFF,127.61,8.0,0.485,3.799E-003,6.060E-002,10.000,SWOFF,0.00
! <AirFlow Model>, Simple
 AirFlow Model, Simple
! <RoomAir Model>, Zone Name, Mixing/Mundt/UCSDDV/UCSDCV/UCSDUFI/UCSDUFE/User Defined
RoomAir Model,UNDERFLOOR_VOID_SPACE,Mixing/Well-Stirred
RoomAir Model,ROOFS1,Mixing/Well-Stirred
RoomAir Model,ROOFS2,Mixing/Well-Stirred
RoomAir Model,ROOFS3,Mixing/Well-Stirred
RoomAir Model,ROOFS0,Mixing/Well-Stirred
RoomAir Model,ROOFS4,Mixing/Well-Stirred
RoomAir Model,ROOFN0,Mixing/Well-Stirred
RoomAir Model,ROOFN3,Mixing/Well-Stirred
RoomAir Model,ROOFN1,Mixing/Well-Stirred
RoomAir Model,ROOFN2,Mixing/Well-Stirred
RoomAir Model,SWOFF,UnderFloorAirDistributionInterior
RoomAir Model,SEOFF,UnderFloorAirDistributionInterior
RoomAir Model,NWOFF,Mixing/Well-Stirred
RoomAir Model,NEOFF,Mixing/Well-Stirred
RoomAir Model,CENTRAL,Mixing/Well-Stirred
RoomAir Model,LARGECONF,Mixing/Well-Stirred
! <AirflowNetwork Model:Control>, No Multizone or Distribution/Multizone with Distribution/Multizone without Distribution/Multizone with Distribution only during Fan Operation
AirflowNetwork Model:Control,NoMultizoneOrDistribution
! <Zone Volume Capacitance Multiplier>, Sensible Heat Capacity Multiplier, Moisture Capacity Multiplier, Carbon Dioxide Capacity Multiplier, Generic Contaminant Capacity Multiplier
Zone Volume Capacitance Multiplier,   1.000 ,   1.000,   1.000,   1.000
! <Component Sizing Information>, Component Type, Component Name, Input Field Description, Value
 Component Sizing Information, ZoneHVAC:LowTemperatureRadiant:ConstantFlow, SWOFF MULLION, User-Specified Maximum Water Flow [m3/s], 3.90000E-004
 Component Sizing Information, ZoneHVAC:LowTemperatureRadiant:ConstantFlow, SWOFF MULLION, User-Specified Hydronic Tubing Length [m], 600.00000
 Component Sizing Information, AirTerminal:SingleDuct:Uncontrolled, SWOFF DIRECT AIR, User-Specified Maximum Air Flow Rate [m3/s], 0.51000
 Component Sizing Information, ZoneHVAC:FourPipeFanCoil, SWOFF FAN COIL UNIT, User-Specified Maximum Supply Air Flow Rate [m3/s], 0.10000
 Component Sizing Information, ZoneHVAC:FourPipeFanCoil, SWOFF FAN COIL UNIT, User-Specified Maximum Hot Water Flow [m3/s], 1.30000E-004
 Component Sizing Information, ZoneHVAC:FourPipeFanCoil, SWOFF FAN COIL UNIT, User-Specified Maximum Cold Water Flow [m3/s], 1.30000E-004
 Component Sizing Information, Fan:OnOff, SWOFF FAN COIL UNIT SUPPLY FAN, User-Specified Maximum Flow Rate [m3/s], 0.10000
! <Water Cooling Coil Capacity Information>,Component Type,Name,Nominal Total Capacity {W},Nominal Sensible Capacity {W},Nominal Latent Capacity {W},Nominal Sensible Heat Ratio, Nominal Coil UA Value {W/C}, Nominal Coil Surface Area {m2}
Water Cooling Coil Capacity Information,Coil:Cooling:Water,SWOFF FAN COIL UNIT COOLING COIL,3204.41,2018.24,1186.17,0.63,483.01,4.90
! <Water Heating Coil Capacity Information>,Component Type,Name,Nominal Total Capacity {W}
Water Heating Coil Capacity Information,Coil:Heating:Water,SWOFF FAN COIL UNIT HEATING COIL,2732.51
 Component Sizing Information, ZoneHVAC:LowTemperatureRadiant:ConstantFlow, SEOFF MULLION, User-Specified Maximum Water Flow [m3/s], 3.90000E-004
 Component Sizing Information, ZoneHVAC:LowTemperatureRadiant:ConstantFlow, SEOFF MULLION, User-Specified Hydronic Tubing Length [m], 600.00000
 Component Sizing Information, AirTerminal:SingleDuct:Uncontrolled, SEOFF DIRECT AIR, User-Specified Maximum Air Flow Rate [m3/s], 0.51000
 Component Sizing Information, ZoneHVAC:FourPipeFanCoil, SEOFF FAN COIL UNIT, User-Specified Maximum Supply Air Flow Rate [m3/s], 0.10000
 Component Sizing Information, ZoneHVAC:FourPipeFanCoil, SEOFF FAN COIL UNIT, User-Specified Maximum Hot Water Flow [m3/s], 1.30000E-004
 Component Sizing Information, ZoneHVAC:FourPipeFanCoil, SEOFF FAN COIL UNIT, User-Specified Maximum Cold Water Flow [m3/s], 1.30000E-004
 Component Sizing Information, Fan:OnOff, SEOFF FAN COIL UNIT SUPPLY FAN, User-Specified Maximum Flow Rate [m3/s], 0.10000
Water Cooling Coil Capacity Information,Coil:Cooling:Water,SEOFF FAN COIL UNIT COOLING COIL,3204.41,2018.24,1186.17,0.63,483.01,4.90
Water Heating Coil Capacity Information,Coil:Heating:Water,SEOFF FAN COIL UNIT HEATING COIL,2732.51
 Component Sizing Information, ZoneHVAC:LowTemperatureRadiant:ConstantFlow, NWOFF MULLION, User-Specified Maximum Water Flow [m3/s], 1.30000E-004
 Component Sizing Information, ZoneHVAC:LowTemperatureRadiant:ConstantFlow, NWOFF MULLION, User-Specified Hydronic Tubing Length [m], 200.00000
 Component Sizing Information, ZoneHVAC:LowTemperatureRadiant:ConstantFlow, NWOFF CHILLED CEILING, User-Specified Maximum Water Flow [m3/s], 1.30000E-004
 Component Sizing Information, ZoneHVAC:LowTemperatureRadiant:ConstantFlow, NWOFF CHILLED CEILING, User-Specified Hydronic Tubing Length [m], 56.00000
 Component Sizing Information, ZoneHVAC:LowTemperatureRadiant:ConstantFlow, NEOFF MULLION, User-Specified Maximum Water Flow [m3/s], 3.90000E-004
 Component Sizing Information, ZoneHVAC:LowTemperatureRadiant:ConstantFlow, NEOFF MULLION, User-Specified Hydronic Tubing Length [m], 600.00000
 Component Sizing Information, ZoneHVAC:LowTemperatureRadiant:ConstantFlow, NEOFF CHILLED CEILING, User-Specified Maximum Water Flow [m3/s], 6.50000E-005
 Component Sizing Information, ZoneHVAC:LowTemperatureRadiant:ConstantFlow, NEOFF CHILLED CEILING, User-Specified Hydronic Tubing Length [m], 28.00000
 Component Sizing Information, AirTerminal:SingleDuct:ConstantVolume:CooledBeam, NEOFF COOLED BEAM, Coefficient of Induction Kin, 0.00000
 Component Sizing Information, ZoneHVAC:LowTemperatureRadiant:ConstantFlow, CENTRAL MULLION, User-Specified Maximum Water Flow [m3/s], 5.00000E-005
 Component Sizing Information, ZoneHVAC:LowTemperatureRadiant:ConstantFlow, CENTRAL MULLION, User-Specified Hydronic Tubing Length [m], 100.00000
 Component Sizing Information, ZoneHVAC:LowTemperatureRadiant:ConstantFlow, CENTRAL CHILLED CEILING, User-Specified Maximum Water Flow [m3/s], 6.50000E-005
 Component Sizing Information, ZoneHVAC:LowTemperatureRadiant:ConstantFlow, CENTRAL CHILLED CEILING, User-Specified Hydronic Tubing Length [m], 28.00000
 Component Sizing Information, ZoneHVAC:LowTemperatureRadiant:ConstantFlow, LARGECONF MULLION, User-Specified Maximum Water Flow [m3/s], 2.60000E-004
 Component Sizing Information, ZoneHVAC:LowTemperatureRadiant:ConstantFlow, LARGECONF MULLION, User-Specified Hydronic Tubing Length [m], 200.00000
 Component Sizing Information, AirTerminal:SingleDuct:ConstantVolume:CooledBeam, LARGECONF COOLED BEAM, Coefficient of Induction Kin, 0.00000
 Component Sizing Information, Fan:ConstantVolume, DOAS AHU EXTRACT FAN, User-Specified Maximum Flow Rate [m3/s], 1.06000
 Component Sizing Information, Fan:ConstantVolume, DOAS AHU SUPPLY FAN, User-Specified Maximum Flow Rate [m3/s], 1.06000
 Component Sizing Information, Coil:Cooling:DX:SingleSpeed, DOAS AHU UNITARY COOLING COIL DX COOLING COIL, User-Specified Rated Air Flow Rate [m3/s], 1.06000
 Component Sizing Information, Coil:Cooling:DX:SingleSpeed, DOAS AHU UNITARY COOLING COIL DX COOLING COIL, User-Specified Gross Rated Total Cooling Capacity [W], 25000.00000
 Component Sizing Information, Coil:Cooling:DX:SingleSpeed, DOAS AHU UNITARY COOLING COIL DX COOLING COIL, User-Specified Gross Rated Sensible Heat Ratio, 0.60000
! <DX Cooling Coil Standard Rating Information>, Component Type, Component Name, Standard Rating (Net) Cooling Capacity {W}, Standard Rated Net COP {W/W}, EER {Btu/W-h}, SEER {Btu/W-h}, IEER {Btu/W-h}
 DX Cooling Coil Standard Rating Information, Coil:Cooling:DX:SingleSpeed, DOAS AHU UNITARY COOLING COIL DX COOLING COIL, 24176.3, 3.72, 12.69, 13.44, 12.86
 Component Sizing Information, Coil:Heating:Gas, DOAS DESICCANT REGEN BURNER COIL, User-Specified Nominal Capacity [W], 22000.00000
 Component Sizing Information, Fan:ConstantVolume, DESICCANT REGEN FAN, User-Specified Maximum Flow Rate [m3/s], 1.06000
 Component Sizing Information, PlantLoop, TEMPHWLOOP, Plant Loop Volume [m3], 1.12500
 Component Sizing Information, Pump:ConstantSpeed, TEMPHWLOOP SUPPLY PUMP, Rated Power Consumption [W], 56.98006
 Component Sizing Information, DistrictHeating, CMU DISTRICTHEATING, Design Size Nominal Capacity [W], 83508.73190
[...]
HeatTransfer_Surface,NEOFF_WALL_NORTH_BOT_MULL,Wall,,CTF - ConductionTransferFunction,,11.839,4.271,,1.74,1.74,1.74,14.99,90.00,4.35,0.40,0.00,ExternalEnvironment,DOE-2,ASHRAETARP,SunExposed,WindExposed,0.50,0.50,0.50,0.50,4
HeatTransfer_Surface,NEOFF_WALL_SOUTH_MID,Wall,,CTF - ConductionTransferFunction,,0.286,0.274,,3.25,10.44,4.25,195.00,90.00,4.35,2.40,0.00,ExternalEnvironment,DOE-2,ASHRAETARP,SunExposed,WindExposed,0.50,0.50,0.58,0.42,4
HeatTransfer_Surface,NEOFF_WALL_SOUTH_WIN_BOT,Window,NEOFF_WALL_SOUTH_MID,Window5 Detailed Fenestration,,N/A,2.658,No,1.79,1.93,1.93,195.00,90.00,4.15,0.47,0.00,ExternalEnvironment,DOE-2,ASHRAETARP,SunExposed,WindExposed,0.50,0.50,0.57,0.43,4
Frame/Divider_Surface,FRAMEDIVIDER_H0V3,Frame,NEOFF_WALL_SOUTH_WIN_BOT,Window5 Detailed Fenestration,,,,,0.47,0.47,*,N/A,N/A,5.00E-002,N/A
Frame/Divider_Surface,FRAMEDIVIDER_H0V3,Divider:DividedLite,NEOFF_WALL_SOUTH_WIN_BOT,,,,,,0.14,0.14,*,N/A,N/A,0.10,N/A
HeatTransfer_Surface,NEOFF_WALL_SOUTH_WIN_TOP,Window,NEOFF_WALL_SOUTH_MID,Window5 Detailed Fenestration,,N/A,2.658,No,3.95,4.26,4.26,195.00,90.00,4.15,1.03,0.00,ExternalEnvironment,DOE-2,ASHRAETARP,SunExposed,WindExposed,0.50,0.50,0.57,0.43,4
Frame/Divider_Surface,FRAMEDIVIDER_H0V3,Frame,NEOFF_WALL_SOUTH_WIN_TOP,Window5 Detailed Fenestration,,,,,0.53,0.53,*,N/A,N/A,5.00E-002,N/A
Frame/Divider_Surface,FRAMEDIVIDER_H0V3,Divider:DividedLite,NEOFF_WALL_SOUTH_WIN_TOP,,,,,,0.31,0.31,*,N/A,N/A,0.10,N/A
HeatTransfer_Surface,NEOFF_WALL_SOUTH_TOP_MULL,Wall,,CTF - ConductionTransferFunction,,11.839,4.271,,0.87,0.87,0.87,195.00,90.00,4.35,0.20,0.00,ExternalEnvironment,DOE-2,ASHRAETARP,SunExposed,WindExposed,0.50,0.50,0.59,0.41,4
HeatTransfer_Surface,NEOFF_WALL_SOUTH_BOT_MULL,Wall,,CTF - ConductionTransferFunction,,11.839,4.271,,1.74,1.74,1.74,195.00,90.00,4.35,0.40,0.00,ExternalEnvironment,DOE-2,ASHRAETARP,SunExposed,WindExposed,0.50,0.50,0.59,0.41,4
HeatTransfer_Surface,NEOFF_FLOOR,Floor,,CTF - ConductionTransferFunction,,22.600,3.481,,87.00,87.00,87.00,15.00,180.00,4.35,20.00,0.00,UNDERFLOOR_VOID_SPACE_CEILING_NEOFF,Other/Same Surface Int Conv,ASHRAETARP,NoSun,NoWind,0.00,0.00,1.00,0.00,4
HeatTransfer_Surface,NEOFF_SOUTH_CEILING_1_0_10055,Roof,,CTF - ConductionTransferFunction,,11.200,3.601,,5.00E-002,21.75,5.00E-002,195.00,0.00,4.35,5.00,0.00,ROOFN0_FLOOR_0_3_0,Other/Same Surface Int Conv,ASHRAETARP,NoSun,NoWind,0.00,1.00,0.00,1.00,4
HeatTransfer_Surface,NEOFF_SOUTH_CEILING_1_0_10055_HOLE,Door,NEOFF_SOUTH_CEILING_1_0_10055,CTF - ConductionTransferFunction,,100.000,100.000,,21.70,21.70,21.70,195.00,0.00,4.34,5.00,0.00,ROOFN0_FLOOR_0_3_0_HOLE,Other/Same Surface Int Conv,User Supplied Value,NoSun,NoWind,0.00,1.00,0.00,1.00,4
HeatTransfer_Surface,NEOFF_NORTH_CEILING_1_0_10061,Roof,,CTF - ConductionTransferFunction,,11.200,3.601,,3.79E-002,21.73,3.79E-002,195.00,0.00,4.35,5.00,0.00,ROOFN3_FLOOR_0_1_0,Other/Same Surface Int Conv,ASHRAETARP,NoSun,NoWind,0.00,1.00,0.00,1.00,4
HeatTransfer_Surface,OFF-ANNIE_CEILING_1_0_0_0_0_0_HOLE_10063,Door,NEOFF_NORTH_CEILING_1_0_10061,CTF - ConductionTransferFunction,,100.000,100.000,,21.70,21.70,21.70,195.00,0.00,4.35,4.99,0.00,ROOFN3_FLOOR_0_1_0_0_0_1_HOLE,Other/Same Surface Int Conv,User Supplied Value,NoSun,NoWind,0.00,1.00,0.00,1.00,4
HeatTransfer_Surface,BAS_CEILING_1_0_10067,Roof,,CTF - ConductionTransferFunction,,20000.000,5.305,,5.08,21.75,5.08,195.00,0.00,4.35,5.00,0.00,ROOFN1_FLOOR_0_2_0,Other/Same Surface Int Conv,ASHRAETARP,NoSun,NoWind,0.00,1.00,0.00,1.00,4
HeatTransfer_Surface,BAS_CEILING_1_0_0_0_0_0_HOLE_10069,Door,BAS_CEILING_1_0_10067,CTF - ConductionTransferFunction,,100.000,100.000,,16.68,16.68,16.68,195.00,0.00,3.34,4.99,0.00,ROOFN1_FLOOR_0_2_0_0_0_2_HOLE,Other/Same Surface Int Conv,User Supplied Value,NoSun,NoWind,0.00,1.00,0.00,1.00,4
HeatTransfer_Surface,OFF-SUREKHA_CEILING_1_0_10073,Roof,,CTF - ConductionTransferFunction,,11.200,3.601,,5.61E-002,21.75,5.61E-002,195.00,0.00,4.35,5.00,0.00,ROOFN2_FLOOR_0_1_0,Other/Same Surface Int Conv,ASHRAETARP,NoSun,NoWind,0.00,1.00,0.00,1.00,4
HeatTransfer_Surface,OFF-SUREKHA_CEILING_1_0_0_0_0_0_HOLE_10075,Door,OFF-SUREKHA_CEILING_1_0_10073,CTF - ConductionTransferFunction,,100.000,100.000,,21.70,21.70,21.70,195.00,0.00,4.34,4.99,0.00,ROOFN2_FLOOR_0_1_0_0_0_1_HOLE,Other/Same Surface Int Conv,User Supplied Value,NoSun,NoWind,0.00,1.00,0.00,1.00,4
HeatTransfer_Surface,NEOFF_INTMASS,Internal Mass,,CTF - ConductionTransferFunction,,22.600,22.600,,600.12,600.12,600.12,0.00,90.00,600.12,1.00,0.00,NEOFF_INTMASS,Other/Same Surface Int Conv,ASHRAETARP,NoSun,NoWind,0.00,0.50,1.00,0.00,0
Zone_Surfaces,CENTRAL,   19
HeatTransfer_Surface,CENTRAL_PARTITION_WEST,Wall,,CTF - ConductionTransferFunction,,2.857,2.001,,3.00E-002,30.00,3.00E-002,105.00,90.00,10.00,3.00,0.00,NWOFF_PARTITION_EAST,Other/Same Surface Int Conv,ASHRAETARP,NoSun,NoWind,0.00,0.50,0.50,0.50,4
HeatTransfer_Surface,CENTRAL_PARTITION_WEST_HOLE,Door,CENTRAL_PARTITION_WEST,CTF - ConductionTransferFunction,,100.000,100.000,,29.97,29.97,29.97,105.00,90.00,9.99,3.00,0.00,NWOFF_PARTITION_EAST_HOLE,Other/Same Surface Int Conv,User Supplied Value,NoSun,NoWind,0.50,0.50,0.50,0.50,4
HeatTransfer_Surface,CENTRAL_PARTITION_SOUTH,Wall,,CTF - ConductionTransferFunction,,2.857,2.001,,3.00E-002,15.95,3.00E-002,15.00,90.00,5.32,3.00,0.00,SEOFF_PARTITION_NORTH,Other/Same Surface Int Conv,ASHRAETARP,NoSun,NoWind,0.00,0.50,0.50,0.50,4
HeatTransfer_Surface,CENTRAL_PARTITION_SOUTH_HOLE,Door,CENTRAL_PARTITION_SOUTH,CTF - ConductionTransferFunction,,100.000,100.000,,15.92,15.92,15.92,15.00,90.00,5.31,3.00,0.00,SEOFF_PARTITION_NORTH_HOLE,Other/Same Surface Int Conv,User Supplied Value,NoSun,NoWind,0.50,0.50,0.50,0.50,4
HeatTransfer_Surface,CENTRAL_PARTITION_NORTH,Wall,,CTF - ConductionTransferFunction,,2.857,2.001,,3.00E-002,24.46,3.00E-002,15.00,90.00,8.15,3.00,0.00,LARGECONF_PARTITION_SOUTH_EAST,Other/Same Surface Int Conv,ASHRAETARP,NoSun,NoWind,0.00,0.50,0.50,0.50,4
HeatTransfer_Surface,CENTRAL_PARTITION_NORTH_HOLE,Door,CENTRAL_PARTITION_NORTH,CTF - ConductionTransferFunction,,100.000,100.000,,24.43,24.43,24.43,15.00,90.00,8.14,3.00,0.00,LARGECONF_PARTITION_SOUTH_EAST_HOLE,Other/Same Surface Int Conv,User Supplied Value,NoSun,NoWind,0.50,0.50,0.50,0.50,4
HeatTransfer_Surface,CENTRAL_PARTITION_EAST,Wall,,CTF - ConductionTransferFunction,,2.857,2.001,,3.00E-002,30.00,3.00E-002,285.00,90.00,10.00,3.00,0.00,NEOFF_PARTITION_WEST_SOUTH,Other/Same Surface Int Conv,ASHRAETARP,NoSun,NoWind,0.00,0.50,0.50,0.50,4
HeatTransfer_Surface,CENTRAL_PARTITION_EAST_HOLE,Door,CENTRAL_PARTITION_EAST,CTF - ConductionTransferFunction,,100.000,100.000,,29.97,29.97,29.97,285.00,90.00,9.99,3.00,0.00,NEOFF_PARTITION_WEST_SOUTH_HOLE,Other/Same Surface Int Conv,User Supplied Value,NoSun,NoWind,0.50,0.50,0.50,0.50,4
HeatTransfer_Surface,CENTRAL_WALL_SOUTH_BOT_MULL,Wall,,CTF - ConductionTransferFunction,,11.839,4.271,,1.14,1.14,1.14,195.00,90.00,2.84,0.40,0.00,ExternalEnvironment,DOE-2,ASHRAETARP,SunExposed,WindExposed,0.50,0.50,0.68,0.32,4
HeatTransfer_Surface,CENTRAL_WALL_SOUTH_TOP_MULL,Wall,,CTF - ConductionTransferFunction,,11.839,4.271,,0.57,0.57,0.57,195.00,90.00,2.84,0.20,0.00,ExternalEnvironment,DOE-2,ASHRAETARP,SunExposed,WindExposed,0.50,0.50,0.61,0.39,4
HeatTransfer_Surface,CENTRAL_WALL_SOUTH_MID,Wall,,CTF - ConductionTransferFunction,,0.286,0.274,,2.18,6.82,2.88,195.00,90.00,2.84,2.40,0.00,ExternalEnvironment,DOE-2,ASHRAETARP,SunExposed,WindExposed,0.50,0.50,0.67,0.33,4
HeatTransfer_Surface,CENTRAL_WALL_SOUTH_WIN_TOP,Window,CENTRAL_WALL_SOUTH_MID,Window5 Detailed Fenestration,,N/A,2.658,No,2.61,2.71,2.71,195.00,90.00,2.64,1.03,0.00,ExternalEnvironment,DOE-2,ASHRAETARP,SunExposed,WindExposed,0.50,0.50,0.64,0.36,4
Frame/Divider_Surface,FRAMEDIVIDER_H0V1,Frame,CENTRAL_WALL_SOUTH_WIN_TOP,Window5 Detailed Fenestration,,,,,0.38,0.38,*,N/A,N/A,5.00E-002,N/A
Frame/Divider_Surface,FRAMEDIVIDER_H0V1,Divider:DividedLite,CENTRAL_WALL_SOUTH_WIN_TOP,,,,,,0.10,0.10,*,N/A,N/A,0.10,N/A
HeatTransfer_Surface,CENTRAL_WALL_SOUTH_WIN_BOT,Window,CENTRAL_WALL_SOUTH_MID,Window5 Detailed Fenestration,,N/A,2.658,No,1.18,1.23,1.23,195.00,90.00,2.64,0.47,0.00,ExternalEnvironment,DOE-2,ASHRAETARP,SunExposed,WindExposed,0.50,0.50,0.66,0.34,4
Frame/Divider_Surface,FRAMEDIVIDER_H0V1,Frame,CENTRAL_WALL_SOUTH_WIN_BOT,Window5 Detailed Fenestration,,,,,0.32,0.32,*,N/A,N/A,5.00E-002,N/A
Frame/Divider_Surface,FRAMEDIVIDER_H0V1,Divider:DividedLite,CENTRAL_WALL_SOUTH_WIN_BOT,,,,,,4.66E-002,4.66E-002,*,N/A,N/A,0.10,N/A
HeatTransfer_Surface,CENTRAL_FLOOR,Floor,,CTF - ConductionTransferFunction,,3.084,1.763,,81.55,81.55,81.55,15.00,180.00,8.15,10.00,0.00,UNDERFLOOR_VOID_SPACE_CEILING_CENTRAL,Other/Same Surface Int Conv,ASHRAETARP,NoSun,NoWind,0.00,0.00,1.00,0.00,4
HeatTransfer_Surface,CENTRAL_SOUTH_CEILING_1_0_10055,Roof,,CTF - ConductionTransferFunction,,11.200,3.601,,5.00E-002,40.77,5.00E-002,195.00,0.00,8.15,5.00,0.00,ROOFN0_FLOOR_0_1_0,Other/Same Surface Int Conv,ASHRAETARP,NoSun,NoWind,0.00,1.00,0.00,1.00,4
HeatTransfer_Surface,STAIRNCOM_CEILING_1_0_0_0_0_0_HOLE_10057,Door,CENTRAL_SOUTH_CEILING_1_0_10055,CTF - ConductionTransferFunction,,100.000,100.000,,40.72,40.72,40.72,15.00,0.00,8.14,5.00,0.00,ROOFN0_FLOOR_0_1_0_0_0_1_HOLE,Other/Same Surface Int Conv,User Supplied Value,NoSun,NoWind,0.00,1.00,0.00,1.00,4
HeatTransfer_Surface,CENTRAL_NORTH_CEILING_1_0_10065,Roof,,CTF - ConductionTransferFunction,,20000.000,5.305,,5.36,40.77,5.36,195.00,0.00,8.15,5.00,0.00,ROOFN1_FLOOR_0_1_0,Other/Same Surface Int Conv,ASHRAETARP,NoSun,NoWind,0.00,1.00,0.00,1.00,4
HeatTransfer_Surface,KITCHEN_CEILING_1_0_0_0_0_0_HOLE_10067,Door,CENTRAL_NORTH_CEILING_1_0_10065,CTF - ConductionTransferFunction,,100.000,100.000,,35.42,35.42,35.42,195.00,0.00,7.09,4.99,0.00,ROOFN1_FLOOR_0_1_0_0_0_1_HOLE,Other/Same Surface Int Conv,User Supplied Value,NoSun,NoWind,0.00,1.00,0.00,1.00,4
HeatTransfer_Surface,CENTRAL_INTMASS,Internal Mass,,CTF - ConductionTransferFunction,,22.600,22.600,,600.12,600.12,600.12,0.00,90.00,600.12,1.00,0.00,CENTRAL_INTMASS,Other/Same Surface Int Conv,ASHRAETARP,NoSun,NoWind,0.00,0.50,1.00,0.00,0
Zone_Surfaces,LARGECONF,   21
HeatTransfer_Surface,LARGECONF_PARTITION_SOUTH_WEST,Wall,,CTF - ConductionTransferFunction,,2.857,2.001,,3.00E-002,15.95,3.00E-002,15.00,90.00,5.32,3.00,0.00,NWOFF_PARTITION_NORTH,Other/Same Surface Int Conv,ASHRAETARP,NoSun,NoWind,0.00,0.50,0.50,0.50,4
HeatTransfer_Surface,LARGECONF_PARTITION_SOUTH_WEST_HOLE,Door,LARGECONF_PARTITION_SOUTH_WEST,CTF - ConductionTransferFunction,,100.000,100.000,,15.92,15.92,15.92,15.00,90.00,5.31,3.00,0.00,NWOFF_PARTITION_NORTH_HOLE,Other/Same Surface Int Conv,User Supplied Value,NoSun,NoWind,0.50,0.50,0.50,0.50,4
HeatTransfer_Surface,LARGECONF_PARTITION_EAST,Wall,,CTF - ConductionTransferFunction,,2.857,2.001,,3.00E-002,30.00,3.00E-002,285.00,90.00,10.00,3.00,0.00,NEOFF_PARTITION_WEST_NORTH,Other/Same Surface Int Conv,ASHRAETARP,NoSun,NoWind,0.00,0.50,0.50,0.50,4
HeatTransfer_Surface,LARGECONF_PARTITION_EAST_HOLE,Door,LARGECONF_PARTITION_EAST,CTF - ConductionTransferFunction,,100.000,100.000,,29.97,29.97,29.97,285.00,90.00,9.99,3.00,0.00,NEOFF_PARTITION_WEST_NORTH_HOLE,Other/Same Surface Int Conv,User Supplied Value,NoSun,NoWind,0.50,0.50,0.50,0.50,4
HeatTransfer_Surface,LARGECONF_PARTITION_SOUTH_EAST,Wall,,CTF - ConductionTransferFunction,,2.857,2.001,,3.00E-002,24.46,3.00E-002,195.00,90.00,8.15,3.00,0.00,CENTRAL_PARTITION_NORTH,Other/Same Surface Int Conv,ASHRAETARP,NoSun,NoWind,0.00,0.50,0.50,0.50,4
HeatTransfer_Surface,LARGECONF_PARTITION_SOUTH_EAST_HOLE,Door,LARGECONF_PARTITION_SOUTH_EAST,CTF - ConductionTransferFunction,,100.000,100.000,,24.43,24.43,24.43,195.00,90.00,8.14,3.00,0.00,CENTRAL_PARTITION_NORTH_HOLE,Other/Same Surface Int Conv,User Supplied Value,NoSun,NoWind,0.50,0.50,0.50,0.50,4
HeatTransfer_Surface,LARGECONF_WALL_NORTH_MID,Wall,,CTF - ConductionTransferFunction,,0.286,0.274,,9.65,32.33,11.15,14.99,90.00,13.47,2.40,0.00,ExternalEnvironment,DOE-2,ASHRAETARP,SunExposed,WindExposed,0.50,0.50,0.50,0.50,4
HeatTransfer_Surface,LARGECONF_WALL_NORTH_WIN,Window,LARGECONF_WALL_NORTH_MID,Window5 Detailed Fenestration,,N/A,2.658,No,19.26,21.18,21.18,15.00,90.00,13.27,1.60,1.57E-003,ExternalEnvironment,DOE-2,ASHRAETARP,SunExposed,WindExposed,0.50,0.50,0.50,0.50,4
Frame/Divider_Surface,FRAMEDIVIDER_H0V12,Frame,LARGECONF_WALL_NORTH_WIN,Window5 Detailed Fenestration,,,,,1.50,1.50,*,N/A,N/A,5.00E-002,N/A
Frame/Divider_Surface,FRAMEDIVIDER_H0V12,Divider:DividedLite,LARGECONF_WALL_NORTH_WIN,,,,,,1.92,1.92,*,N/A,N/A,0.10,N/A
HeatTransfer_Surface,LARGECONF_WALL_NORTH_TOP_MULL,Wall,,CTF - ConductionTransferFunction,,11.839,4.271,,2.69,2.69,2.69,14.99,90.00,13.47,0.20,0.00,ExternalEnvironment,DOE-2,ASHRAETARP,SunExposed,WindExposed,0.50,0.50,0.50,0.50,4
HeatTransfer_Surface,LARGECONF_WALL_NORTH_BOT_MULL,Wall,,CTF - ConductionTransferFunction,,11.839,4.271,,5.39,5.39,5.39,14.99,90.00,13.47,0.40,0.00,ExternalEnvironment,DOE-2,ASHRAETARP,SunExposed,WindExposed,0.50,0.50,0.50,0.50,4
HeatTransfer_Surface,LARGECONF_WALL_WEST_MID,Wall,,CTF - ConductionTransferFunction,,0.286,0.274,,7.25,24.01,9.38,285.00,90.00,10.00,2.40,0.00,ExternalEnvironment,DOE-2,ASHRAETARP,SunExposed,WindExposed,0.50,0.50,0.51,0.49,4
HeatTransfer_Surface,LARGECONF_WALL_WEST_WIN_BOT,Window,LARGECONF_WALL_WEST_MID,Window5 Detailed Fenestration,,N/A,2.658,No,4.10,4.57,4.57,285.00,90.00,9.80,0.47,0.00,ExternalEnvironment,DOE-2,ASHRAETARP,SunExposed,WindExposed,0.50,0.50,0.51,0.49,4
Frame/Divider_Surface,FRAMEDIVIDER_H0V10,Frame,LARGECONF_WALL_WEST_WIN_BOT,Window5 Detailed Fenestration,,,,,1.04,1.04,*,N/A,N/A,5.00E-002,N/A
Frame/Divider_Surface,FRAMEDIVIDER_H0V10,Divider:DividedLite,LARGECONF_WALL_WEST_WIN_BOT,,,,,,0.47,0.47,*,N/A,N/A,0.10,N/A
HeatTransfer_Surface,LARGECONF_WALL_WEST_WIN_TOP,Window,LARGECONF_WALL_WEST_MID,Window5 Detailed Fenestration,,N/A,2.658,No,9.03,10.06,10.06,285.00,90.00,9.80,1.03,0.00,ExternalEnvironment,DOE-2,ASHRAETARP,SunExposed,WindExposed,0.50,0.50,0.54,0.46,4
Frame/Divider_Surface,FRAMEDIVIDER_H0V10,Frame,LARGECONF_WALL_WEST_WIN_TOP,Window5 Detailed Fenestration,,,,,1.09,1.09,*,N/A,N/A,5.00E-002,N/A
Frame/Divider_Surface,FRAMEDIVIDER_H0V10,Divider:DividedLite,LARGECONF_WALL_WEST_WIN_TOP,,,,,,1.03,1.03,*,N/A,N/A,0.10,N/A
HeatTransfer_Surface,LARGECONF_WALL_WEST_TOP_MULL,Wall,,CTF - ConductionTransferFunction,,11.839,4.271,,2.00,2.00,2.00,285.00,90.00,10.00,0.20,0.00,ExternalEnvironment,DOE-2,ASHRAETARP,SunExposed,WindExposed,0.50,0.50,0.59,0.41,4
HeatTransfer_Surface,LARGECONF_WALL_WEST_BOT_MULL,Wall,,CTF - ConductionTransferFunction,,11.839,4.271,,4.00,4.00,4.00,285.00,90.00,10.00,0.40,0.00,ExternalEnvironment,DOE-2,ASHRAETARP,SunExposed,WindExposed,0.50,0.50,0.50,0.50,4
HeatTransfer_Surface,LARGECONF_FLOOR,Floor,,CTF - ConductionTransferFunction,,22.600,3.481,,134.70,134.70,134.70,15.00,180.00,13.47,10.00,0.00,UNDERFLOOR_VOID_SPACE_CEILING_LARGECONF,Other/Same Surface Int Conv,ASHRAETARP,NoSun,NoWind,0.00,0.00,1.00,0.00,4
HeatTransfer_Surface,LARGECONF_NORTH_CEILING_1_0_10059,Roof,,CTF - ConductionTransferFunction,,11.200,3.601,,0.11,67.30,0.11,195.00,0.00,13.47,5.00,0.00,ROOFN3_FLOOR_0_0_0,Other/Same Surface Int Conv,ASHRAETARP,NoSun,NoWind,0.00,1.00,0.00,1.00,4
HeatTransfer_Surface,LARGECONF1_CEILING_1_0_0_0_0_0_HOLE_10061,Door,LARGECONF_NORTH_CEILING_1_0_10059,CTF - ConductionTransferFunction,,100.000,100.000,,67.19,67.19,67.19,195.00,0.00,13.46,4.99,0.00,ROOFN3_FLOOR_0_0_0_0_0_0_HOLE,Other/Same Surface Int Conv,User Supplied Value,NoSun,NoWind,0.00,1.00,0.00,1.00,4
HeatTransfer_Surface,LARGECONF_SOUTH_CEILING_1_0_10071,Roof,,CTF - ConductionTransferFunction,,11.200,3.601,,0.11,67.35,0.11,195.00,0.00,13.47,5.00,0.00,ROOFN2_FLOOR_0_0_0,Other/Same Surface Int Conv,ASHRAETARP,NoSun,NoWind,0.00,1.00,0.00,1.00,4
HeatTransfer_Surface,LARGECONF0_CEILING_1_0_0_0_0_0_HOLE_10073,Door,LARGECONF_SOUTH_CEILING_1_0_10071,CTF - ConductionTransferFunction,,100.000,100.000,,67.24,67.24,67.24,195.00,0.00,13.46,4.99,0.00,ROOFN2_FLOOR_0_0_0_0_0_0_HOLE,Other/Same Surface Int Conv,User Supplied Value,NoSun,NoWind,0.00,1.00,0.00,1.00,4
HeatTransfer_Surface,LARGECONF_INTMASS,Internal Mass,,CTF - ConductionTransferFunction,,22.600,22.600,,600.12,600.12,600.12,0.00,90.00,600.12,1.00,0.00,LARGECONF_INTMASS,Other/Same Surface Int Conv,ASHRAETARP,NoSun,NoWind,0.00,0.50,1.00,0.00,0
! <Environment>,Environment Name,Environment Type, Start Date, End Date, Start DayOfWeek, Duration {#days}, Source:Start DayOfWeek,  Use Daylight Saving, Use Holidays, Apply Weekend Holiday Rule,  Use Rain Values, Use Snow Values
! <Environment:Special Days>, Special Day Name, Special Day Type, Source, Start Date, Duration {#days}
! <Environment:Daylight Saving>, Daylight Saving Indicator, Source, Start Date, End Date
! <Environment:WarmupDays>, NumberofWarmupDays
Environment,WHOLEYEAR,WeatherFileRunPeriod,01/01,03/31,Sunday,90,Use RunPeriod Specified Day,No,No,Yes,Yes,Yes
Environment:Daylight Saving,No,RunPeriod Object
Environment:WarmupDays,  6
! <Warmup Convergence Information>,Zone Name,Environment Type/Name,Average Warmup Temperature Difference {deltaC},Std Dev Warmup Temperature Difference {deltaC},Max Temperature Pass/Fail Convergence,Min Temperature Pass/Fail Convergence,Average Warmup Load Difference {W},Std Dev Warmup Load Difference {W},Heating Load Pass/Fail Convergence,Cooling Load Pass/Fail Convergence
 Warmup Convergence Information,UNDERFLOOR_VOID_SPACE,RunPeriod: WHOLEYEAR,3.3180583593E-003,2.6954837492E-003,Pass,Pass,0.0000000000,0.0000000000,Pass,Pass
 Warmup Convergence Information,ROOFS1,RunPeriod: WHOLEYEAR,1.3629783355E-002,7.2841820166E-003,Pass,Pass,0.0000000000,0.0000000000,Pass,Pass
 Warmup Convergence Information,ROOFS2,RunPeriod: WHOLEYEAR,1.4245482492E-002,9.0774084440E-003,Pass,Pass,0.0000000000,0.0000000000,Pass,Pass
 Warmup Convergence Information,ROOFS3,RunPeriod: WHOLEYEAR,1.4245960318E-002,9.0776381666E-003,Pass,Pass,0.0000000000,0.0000000000,Pass,Pass
 Warmup Convergence Information,ROOFS0,RunPeriod: WHOLEYEAR,1.4631181008E-002,9.1636796199E-003,Pass,Pass,0.0000000000,0.0000000000,Pass,Pass
 Warmup Convergence Information,ROOFS4,RunPeriod: WHOLEYEAR,1.4233243723E-002,9.0692983332E-003,Pass,Pass,0.0000000000,0.0000000000,Pass,Pass
 Warmup Convergence Information,ROOFN0,RunPeriod: WHOLEYEAR,7.8609912969E-002,0.1046967770,Pass,Pass,0.0000000000,0.0000000000,Pass,Pass
 Warmup Convergence Information,ROOFN3,RunPeriod: WHOLEYEAR,1.5306195514E-002,9.2321146479E-003,Pass,Pass,0.0000000000,0.0000000000,Pass,Pass
 Warmup Convergence Information,ROOFN1,RunPeriod: WHOLEYEAR,8.6806284845E-002,0.1570392364,Pass,Pass,0.0000000000,0.0000000000,Pass,Pass
 Warmup Convergence Information,ROOFN2,RunPeriod: WHOLEYEAR,3.7175523288E-002,3.4660300666E-002,Pass,Pass,0.0000000000,0.0000000000,Pass,Pass
 Warmup Convergence Information,SWOFF,RunPeriod: WHOLEYEAR,2.8366383160E-002,4.0406803359E-002,Pass,Pass,0.0000000000,0.0000000000,Pass,Pass
 Warmup Convergence Information,SEOFF,RunPeriod: WHOLEYEAR,2.7662947018E-002,4.2322588010E-002,Pass,Pass,0.0000000000,0.0000000000,Pass,Pass
 Warmup Convergence Information,NWOFF,RunPeriod: WHOLEYEAR,2.5447304525E-002,3.8534040820E-002,Pass,Pass,0.0000000000,0.0000000000,Pass,Pass
 Warmup Convergence Information,NEOFF,RunPeriod: WHOLEYEAR,2.4920694356E-002,3.6751802157E-002,Pass,Pass,0.0000000000,0.0000000000,Pass,Pass
 Warmup Convergence Information,CENTRAL,RunPeriod: WHOLEYEAR,2.2275494275E-002,3.1790229799E-002,Pass,Pass,0.0000000000,0.0000000000,Pass,Pass
 Warmup Convergence Information,LARGECONF,RunPeriod: WHOLEYEAR,2.2352707870E-002,3.1778718756E-002,Pass,Pass,0.0000000000,0.0000000000,Pass,Pass
! <Program Control Information:Threads/Parallel Sims>, Threading Supported,Maximum Number of Threads, Env Set Threads (OMP_NUM_THREADS), EP Env Set Threads (EP_OMP_NUM_THREADS), IDF Set Threads, Number of Threads Used (Interior Radiant Exchange), Number Nominal Surfaces, Number Parallel Sims
Program Control:Threads/Parallel Sims, No,1, N/A, N/A, N/A, N/A, N/A, N/A
End of Data
