Program Version,EnergyPlus, Version 8.3.0-6d97d074ea, YMD=2018.01.11 23:37,IDD_Version 8.3.0
   ** Warning ** Version: in IDF="8.6" not the same as expected="8.3"
   ************* Beginning Zone Sizing Calculations
   ** Warning ** CheckUsedConstructions: There are 5 nominally unused constructions in input.
   **   ~~~   ** For explicit details on each unused construction, use Output:Diagnostics,DisplayExtraWarnings;
   ************* Beginning System Sizing Calculations
   ** Warning ** Coil:Heating:DX:SingleSpeed "MAIN HEATING COIL 1" - Air volume flow rate per watt of rated total heating capacity is out of range at 5.333E-006 m3/s/W.
   **   ~~~   **  During Warmup, Environment=PITTSBURGH ALLEGHENY CO AP ANN CLG .4% CONDNS DB=>MWB, at Simulation time=07/21 00:00 - 00:05
   **   ~~~   ** Expected range for VolumeFlowPerRatedTotalCapacity=[2.684E-005--8.056E-005]
   **   ~~~   ** Possible causes include inconsistent air flow rates in system components or
   **   ~~~   ** inconsistent supply air fan operation modes in coil and unitary system objects.
   ************* Testing Individual Branch Integrity
   ************* All Branches passed integrity testing
   ************* Testing Individual Supply Air Path Integrity
   ************* All Supply Air Paths passed integrity testing
   ************* Testing Individual Return Air Path Integrity
   ************* All Return Air Paths passed integrity testing
   ************* No node connection errors were found.
   ************* Beginning Simulation
   ** Warning ** Temperature out of range [-100. to 200.] (PsyPsatFnTemp)
   **   ~~~   **  Routine=CalcDXHeatingCoil:fullload, Environment=Pittsburgh Allegheny Co Ap PA USA TMY3 WMO#=725205, at Simulation time=01/12 18:00 - 18:05
   **   ~~~   **  Input Temperature=205.63
   ** Warning ** SimHVAC: Maximum iterations (20) exceeded for all HVAC loops, at Pittsburgh Allegheny Co Ap PA USA TMY3 WMO#=725205, 02/10 13:07 - 13:10
   **   ~~~   ** The solution for one or more of the Air Loop HVAC systems did not appear to converge
   **   ~~~   ** ...use Output:Diagnostics,DisplayExtraWarnings; to show more details on each max iteration exceeded.
   ** Warning ** SimHVAC: Maximum iterations (20) exceeded for all HVAC loops, at Pittsburgh Allegheny Co Ap PA USA TMY3 WMO#=725205, 02/11 13:12 - 13:15
   **   ~~~   ** The solution for one or more of the Air Loop HVAC systems did not appear to converge
   ** Warning ** SimHVAC: Maximum iterations (20) exceeded for all HVAC loops, at Pittsburgh Allegheny Co Ap PA USA TMY3 WMO#=725205, 03/10 16:20 - 16:25
   **   ~~~   ** The solution for one or more of the Air Loop HVAC systems did not appear to converge
   ************* Simulation Error Summary *************
   ************* There are 3 unused schedules in input.
   ************* Use Output:Diagnostics,DisplayUnusedSchedules; to see them.
   *************
   ************* ===== Recurring Error Summary =====
   ************* The following recurring error messages occurred.
   *************
   *************  ** Warning ** Coil:Heating:DX:SingleSpeed "MAIN HEATING COIL 1" - Air volume flow rate per watt of rated total heating capacity is out of range error continues...
   *************  **   ~~~   **   This error occurred 107464 total times;
   *************  **   ~~~   **   during Warmup 6420 times;
   *************  **   ~~~   **   during Sizing 0 times.
   *************  **   ~~~   **   Max=2.682974E-005  Min=5.003835E-006
   *************
   *************  ** Warning ** Temperature out of range [-100. to 200.] (PsyPsatFnTemp)
   *************  **   ~~~   **   This error occurred 1379 total times;
   *************  **   ~~~   **   during Warmup 0 times;
   *************  **   ~~~   **   during Sizing 0 times.
   *************  **   ~~~   **   Max=240.240822 C  Min=200.029648 C
   *************
   *************
   ************* ===== Final Error Summary =====
   ************* The following error categories occurred.  Consider correcting or noting.
   ************* Nominally Unused Constructions
   ************* ..The nominally unused constructions warning is provided to alert you to potential conditions that can cause
   ************* ..extra time during simulation. Each construction is calculated by the algorithm indicated in the HeatBalanceAlgorithm
   ************* ..object. You may remove the constructions indicated (when you use the DisplayExtraWarnings option).
   *************
   ************* EnergyPlus Warmup Error Summary. During Warmup: 0 Warning; 0 Severe Errors.
   ************* EnergyPlus Sizing Error Summary. During Sizing: 1 Warning; 0 Severe Errors.
   ************* EnergyPlus Completed Successfully-- 108848 Warning; 0 Severe Errors; Elapsed Time=00hr 00min 11.52sec
