Program Version,EnergyPlus, Version 8.6.0-198c6a3cff, YMD=2017.09.02 01:05
! <Version>, Version ID
 Version, 8.6
! <Timesteps per Hour>, #TimeSteps, Minutes per TimeStep {minutes}
 Timesteps per Hour,  4, 15
! <System Convergence Limits>, Minimum System TimeStep {minutes}, Max HVAC Iterations, Minimum Plant Iterations, Maximum Plant Iterations
 System Convergence Limits, 1, 20, 2, 8
! <Simulation Control>, Do Zone Sizing, Do System Sizing, Do Plant Sizing, Do Design Days, Do Weather Simulation, Do HVAC Sizing Simulation
 Simulation Control, Yes, Yes, No, No, Yes, No
! <Output Reporting Tolerances>, Tolerance for Time Heating Setpoint Not Met, Tolerance for Zone Cooling Setpoint Not Met Time
 Output Reporting Tolerances, 0.200, 0.200, 
! <Site:GroundTemperature:BuildingSurface>, Months From Jan to Dec {C}
 Site:GroundTemperature:BuildingSurface,  20.03,  20.03,  20.13,  20.30,  20.43,  20.52,  20.62,  20.77,  20.78,  20.55,  20.44,  20.20
! <Site:GroundTemperature:FCfactorMethod>, Months From Jan to Dec {C}
 Site:GroundTemperature:FCfactorMethod,   2.10,   1.21,   2.79,   5.27,  11.76,  16.77,  20.14,  21.17,  19.42,  15.53,  10.34,   5.52
! <Site:GroundTemperature:Shallow>, Months From Jan to Dec {C}
 Site:GroundTemperature:Shallow,  13.00,  13.00,  13.00,  13.00,  13.00,  13.00,  13.00,  13.00,  13.00,  13.00,  13.00,  13.00
! <Site:GroundTemperature:Deep>, Months From Jan to Dec {C}
 Site:GroundTemperature:Deep,  16.00,  16.00,  16.00,  16.00,  16.00,  16.00,  16.00,  16.00,  16.00,  16.00,  16.00,  16.00
! <Site:GroundReflectance>, Months From Jan to Dec {dimensionless}
 Site:GroundReflectance,  0.20,  0.20,  0.20,  0.20,  0.20,  0.20,  0.20,  0.20,  0.20,  0.20,  0.20,  0.20
! <Site:GroundReflectance:SnowModifier>, Normal, Daylighting {dimensionless}
 Site:GroundReflectance:SnowModifier,   1.000,   1.000
! <Site:GroundReflectance:Snow>, Months From Jan to Dec {dimensionless}
 Site:GroundReflectance:Snow,  0.20,  0.20,  0.20,  0.20,  0.20,  0.20,  0.20,  0.20,  0.20,  0.20,  0.20,  0.20
! <Site:GroundReflectance:Snow:Daylighting>, Months From Jan to Dec {dimensionless}
 Site:GroundReflectance:Snow:Daylighting,  0.20,  0.20,  0.20,  0.20,  0.20,  0.20,  0.20,  0.20,  0.20,  0.20,  0.20,  0.20
! <Environment:Weather Station>,Wind Sensor Height Above Ground {m},Wind Speed Profile Exponent {},Wind Speed Profile Boundary Layer Thickness {m},Air Temperature Sensor Height Above Ground {m},Wind Speed Modifier Coefficient [Internal],Temperature Modifier Coefficient [Internal]
Environment:Weather Station,10.000,0.140,270.000,1.500,1.586,9.750E-003
! <Site:Location>, Location Name, Latitude {N+/S- Deg}, Longitude {E+/W- Deg},  Time Zone Number {GMT+/-}, Elevation {m},  Standard Pressure at Elevation {Pa}, Standard RhoAir at Elevation
Site:Location,Pittsburgh Allegheny Co Ap PA USA TMY3 WMO#=725205,40.35,-79.92,-5.00,380.00,96842,1.1510
! <Building Information>, Building Name,North Axis {deg},Terrain,  Loads Convergence Tolerance Value,Temperature Convergence Tolerance Value,  Solar Distribution,Maximum Number of Warmup Days,Minimum Number of Warmup Days
 Building Information,Building,30.000,City,4.00000E-002,0.40000,FullExterior,25,6
! <Inside Convection Algorithm>, Algorithm {Simple | TARP | CeilingDiffuser | AdaptiveConvectionAlgorithm}
Inside Convection Algorithm,Simple
! <Outside Convection Algorithm>, Algorithm {SimpleCombined | TARP | MoWitt | DOE-2 | AdaptiveConvectionAlgorithm}
Outside Convection Algorithm,SimpleCombined
! <Sky Radiance Distribution>, Value {Anisotropic}
Sky Radiance Distribution,Anisotropic
! <Zone Air Solution Algorithm>, Value {ThirdOrderBackwardDifference | AnalyticalSolution | EulerMethod}
 Zone Air Solution Algorithm, ThirdOrderBackwardDifference
! <Zone Air Carbon Dioxide Balance Simulation>, Simulation {Yes/No}, Carbon Dioxide Concentration
 Zone Air Carbon Dioxide Balance Simulation, No,N/A
! <Zone Air Generic Contaminant Balance Simulation>, Simulation {Yes/No}, Generic Contaminant Concentration
 Zone Air Generic Contaminant Balance Simulation, No,N/A
! <Zone Air Mass Flow Balance Simulation>, Enforce Mass Balance, Adjust Zone Mixing, Adjust Zone Infiltration {AddInfiltration | AdjustInfiltration | None}, Infiltration Zones {MixingSourceZonesOnly | AllZones}
 Zone Air Mass Flow Balance Simulation, No,N/A,N/A,N/A
! <Environment:Site Atmospheric Variation>,Wind Speed Profile Exponent {},Wind Speed Profile Boundary Layer Thickness {m},Air Temperature Gradient Coefficient {K/m}
Environment:Site Atmospheric Variation,0.330,460.000,6.500000E-003
! <SurfaceGeometry>,Starting Corner,Vertex Input Direction,Coordinate System,Daylight Reference Point Coordinate System,Rectangular (Simple) Surface Coordinate System
 Surface Geometry,UpperLeftCorner,Counterclockwise,RelativeCoordinateSystem,RelativeCoordinateSystem,RelativeToZoneOrigin
! <Surface Heat Transfer Algorithm>, Value {CTF - ConductionTransferFunction | EMPD - MoisturePenetrationDepthConductionTransferFunction | CondFD - ConductionFiniteDifference | HAMT - CombinedHeatAndMoistureFiniteElement} - Description,Inside Surface Max Temperature Limit{C}, Surface Convection Coefficient Lower Limit {W/m2-K}, Surface Convection Coefficient Upper Limit {W/m2-K}
Surface Heat Transfer Algorithm, CTF - ConductionTransferFunction,200,0.10,1000.0
! <Shading Summary>, Number of Fixed Detached Shades, Number of Building Detached Shades, Number of Attached Shades
 Shading Summary,0,0,4
! <Zone Summary>, Number of Zones, Number of Zone Surfaces, Number of SubSurfaces
 Zone Summary,6,46,6
! <Zone Information>,Zone Name,North Axis {deg},Origin X-Coordinate {m},Origin Y-Coordinate {m},Origin Z-Coordinate {m},Centroid X-Coordinate {m},Centroid Y-Coordinate {m},Centroid Z-Coordinate {m},Type,Zone Multiplier,Zone List Multiplier,Minimum X {m},Maximum X {m},Minimum Y {m},Maximum Y {m},Minimum Z {m},Maximum Z {m},Ceiling Height {m},Volume {m3},Zone Inside Convection Algorithm {Simple-Detailed-CeilingDiffuser-TrombeWall},Zone Outside Convection Algorithm {Simple-Detailed-Tarp-MoWitt-DOE-2-BLAST}, Floor Area {m2},Exterior Gross Wall Area {m2},Exterior Net Wall Area {m2},Exterior Window Area {m2}, Number of Surfaces, Number of SubSurfaces, Number of Shading SubSurfaces,  Part of Total Building Area
 Zone Information, PLENUM-1,0.0,0.00,0.00,0.00,17.01,-1.04,2.70,1,1,1,0.00,34.01,-15.25,13.16,2.40,3.00,0.61,283.20,Simple,Simple,463.60,54.84,54.84,0.00,10,0,0,Yes
 Zone Information, SPACE1-1,0.0,0.00,0.00,0.00,14.06,-6.15,1.20,1,1,1,0.00,26.41,-15.25,1.35,0.00,2.40,2.44,239.25,Simple,Simple,99.16,73.20,51.39,21.81,6,2,4,Yes
 Zone Information, SPACE2-1,0.0,0.00,0.00,0.00,28.88,-7.88,1.20,1,1,1,25.06,34.01,-15.25,-2.09,0.00,2.40,2.44,103.31,Simple,Simple,42.74,36.48,27.36,9.12,6,1,0,Yes
 Zone Information, SPACE3-1,0.0,0.00,0.00,0.00,19.98,4.10,1.20,1,1,1,7.60,34.01,-3.35,13.16,0.00,2.40,2.44,239.25,Simple,Simple,96.48,73.20,52.35,20.85,6,2,0,Yes
 Zone Information, SPACE4-1,0.0,0.00,0.00,0.00,5.15,5.82,1.20,1,1,1,0.00,9.00,0.00,13.16,0.00,2.40,2.44,103.31,Simple,Simple,42.74,36.48,27.36,9.12,6,1,0,Yes
 Zone Information, SPACE5-1,0.0,0.00,0.00,0.00,17.03,-1.00,1.20,1,1,1,5.05,29.01,-10.20,8.20,0.00,2.40,2.44,447.68,Simple,Simple,182.49,0.00,0.00,0.00,6,0,0,Yes
! <Zone Internal Gains/Equipment Information - Nominal>,Zone Name, Floor Area {m2},# Occupants,Area per Occupant {m2/person},Occupant per Area {person/m2},Interior Lighting {W/m2},Electric Load {W/m2},Gas Load {W/m2},Other Load {W/m2},Hot Water Eq {W/m2},Steam Equipment {W/m2},Sum Loads per Area {W/m2},Outdoor Controlled Baseboard Heat
 Zone Internal Gains, PLENUM-1,463.60,0.0,N/A,0.000,0.000,0.000,0.000,0.000,0.000,0.000,0.000,No
 Zone Internal Gains, SPACE1-1,99.16,11.0,9.015,0.111,15.974,10.649,0.000,0.000,0.000,0.000,26.624,No
 Zone Internal Gains, SPACE2-1,42.74,5.0,8.547,0.117,16.006,10.670,0.000,0.000,0.000,0.000,26.676,No
 Zone Internal Gains, SPACE3-1,96.48,11.0,8.771,0.114,16.418,10.945,0.000,0.000,0.000,0.000,27.363,No
 Zone Internal Gains, SPACE4-1,42.74,5.0,8.547,0.117,16.006,10.670,0.000,0.000,0.000,0.000,26.676,No
 Zone Internal Gains, SPACE5-1,182.49,20.0,9.125,0.110,16.242,10.828,0.000,0.000,0.000,0.000,27.070,No
! <People Internal Gains - Nominal>,Name,Schedule Name,Zone Name,Zone Floor Area {m2},# Zone Occupants,Number of People {},People/Floor Area {person/m2},Floor Area per person {m2/person},Fraction Radiant,Fraction Convected,Sensible Fraction Calculation,Activity level,ASHRAE 55 Warnings,Carbon Dioxide Generation Rate,Nominal Minimum Number of People,Nominal Maximum Number of People
 People Internal Gains, SPACE1-1 PEOPLE 1,OCCUPY-1,SPACE1-1,99.16,11.0,11.0,0.111,9.015,0.300,0.700,AutoCalculate,ACTSCHD,No,3.8200E-008,0,11
 People Internal Gains, SPACE2-1 PEOPLE 1,OCCUPY-1,SPACE2-1,42.74,5.0,5.0,0.117,8.547,0.300,0.700,AutoCalculate,ACTSCHD,No,3.8200E-008,0,5
 People Internal Gains, SPACE3-1 PEOPLE 1,OCCUPY-1,SPACE3-1,96.48,11.0,11.0,0.114,8.771,0.300,0.700,AutoCalculate,ACTSCHD,No,3.8200E-008,0,11
 People Internal Gains, SPACE4-1 PEOPLE 1,OCCUPY-1,SPACE4-1,42.74,5.0,5.0,0.117,8.547,0.300,0.700,AutoCalculate,ACTSCHD,No,3.8200E-008,0,5
 People Internal Gains, SPACE5-1 PEOPLE 1,OCCUPY-1,SPACE5-1,182.49,20.0,20.0,0.110,9.125,0.300,0.700,AutoCalculate,ACTSCHD,No,3.8200E-008,0,20
! <Lights Internal Gains - Nominal>,Name,Schedule Name,Zone Name,Zone Floor Area {m2},# Zone Occupants,Lighting Level {W},Lights/Floor Area {W/m2},Lights per person {W/person},Fraction Return Air,Fraction Radiant,Fraction Short Wave,Fraction Convected,Fraction Replaceable,End-Use Category,Nominal Minimum Lighting Level {W},Nominal Maximum Lighting Level {W}
 Lights Internal Gains, SPACE1-1 LIGHTS 1,LIGHTS-1,SPACE1-1,99.16,11.0,1584.000,15.974,144.000,0.200,0.590,0.200,1.000E-002,0.000,GeneralLights,79.200,1584.000
 Lights Internal Gains, SPACE2-1 LIGHTS 1,LIGHTS-1,SPACE2-1,42.74,5.0,684.000,16.006,136.800,0.200,0.590,0.200,1.000E-002,0.000,GeneralLights,34.200,684.000
 Lights Internal Gains, SPACE3-1 LIGHTS 1,LIGHTS-1,SPACE3-1,96.48,11.0,1584.000,16.418,144.000,0.200,0.590,0.200,1.000E-002,0.000,GeneralLights,79.200,1584.000
 Lights Internal Gains, SPACE4-1 LIGHTS 1,LIGHTS-1,SPACE4-1,42.74,5.0,684.000,16.006,136.800,0.200,0.590,0.200,1.000E-002,0.000,GeneralLights,34.200,684.000
 Lights Internal Gains, SPACE5-1 LIGHTS 1,LIGHTS-1,SPACE5-1,182.49,20.0,2964.000,16.242,148.200,0.200,0.590,0.200,1.000E-002,0.000,GeneralLights,148.200,2964.000
! <ElectricEquipment Internal Gains - Nominal>,Name,Schedule Name,Zone Name,Zone Floor Area {m2},# Zone Occupants,Equipment Level {W},Equipment/Floor Area {W/m2},Equipment per person {W/person},Fraction Latent,Fraction Radiant,Fraction Lost,Fraction Convected,End-Use SubCategory,Nominal Minimum Equipment Level {W},Nominal Maximum Equipment Level {W}
 ElectricEquipment Internal Gains, SPACE1-1 ELECEQ 1,EQUIP-1,SPACE1-1,99.16,11.0,1056.000,10.649,96.000,0.000,0.300,0.000,0.700,General,21.120,950.400
 ElectricEquipment Internal Gains, SPACE2-1 ELECEQ 1,EQUIP-1,SPACE2-1,42.74,5.0,456.000,10.670,91.200,0.000,0.300,0.000,0.700,General,9.120,410.400
 ElectricEquipment Internal Gains, SPACE3-1 ELECEQ 1,EQUIP-1,SPACE3-1,96.48,11.0,1056.000,10.945,96.000,0.000,0.300,0.000,0.700,General,21.120,950.400
 ElectricEquipment Internal Gains, SPACE4-1 ELECEQ 1,EQUIP-1,SPACE4-1,42.74,5.0,456.000,10.670,91.200,0.000,0.300,0.000,0.700,General,9.120,410.400
 ElectricEquipment Internal Gains, SPACE5-1 ELECEQ 1,EQUIP-1,SPACE5-1,182.49,20.0,1976.000,10.828,98.800,0.000,0.300,0.000,0.700,General,39.520,1778.400
! <Shadowing/Sun Position Calculations> [Annual Simulations], Calculation Method, Value {days}, Allowable Number Figures in Shadow Overlap {}, Polygon Clipping Algorithm, Sky Diffuse Modeling Algorithm
Shadowing/Sun Position Calculations,AverageOverDaysInFrequency,20,15000,SutherlandHodgman,SimpleSkyDiffuseModeling
! <Infiltration Airflow Stats - Nominal>,Name,Schedule Name,Zone Name, Zone Floor Area {m2}, # Zone Occupants,Design Volume Flow Rate {m3/s},Volume Flow Rate/Floor Area {m3/s/m2},Volume Flow Rate/Exterior Surface Area {m3/s/m2},ACH - Air Changes per Hour,Equation A - Constant Term Coefficient {},Equation B - Temperature Term Coefficient {1/C},Equation C - Velocity Term Coefficient {s/m}, Equation D - Velocity Squared Term Coefficient {s2/m2}
 ZoneInfiltration Airflow Stats, SPACE1-1 INFIL 1,INFIL-SCH,SPACE1-1,99.16,11.0,1.670E-002,1.684E-004,2.281E-004,0.251,0.000,0.000,0.224,0.000
 ZoneInfiltration Airflow Stats, SPACE2-1 INFIL 1,INFIL-SCH,SPACE2-1,42.74,5.0,7.170E-003,1.678E-004,1.965E-004,0.250,0.000,0.000,0.224,0.000
 ZoneInfiltration Airflow Stats, SPACE3-1 INFIL 1,INFIL-SCH,SPACE3-1,96.48,11.0,1.670E-002,1.731E-004,2.281E-004,0.251,0.000,0.000,0.224,0.000
 ZoneInfiltration Airflow Stats, SPACE4-1 INFIL 1,INFIL-SCH,SPACE4-1,42.74,5.0,7.170E-003,1.678E-004,1.965E-004,0.250,0.000,0.000,0.224,0.000
 ZoneInfiltration Airflow Stats, SPACE5-1 INFIL 1,INFIL-SCH,SPACE5-1,182.49,20.0,3.109E-002,1.704E-004,N/A,0.250,0.000,0.000,0.224,0.000
! <AirFlow Model>, Simple
 AirFlow Model, Simple
! <RoomAir Model>, Zone Name, Mixing/Mundt/UCSDDV/UCSDCV/UCSDUFI/UCSDUFE/User Defined
RoomAir Model,PLENUM-1,Mixing/Well-Stirred
RoomAir Model,SPACE1-1,Mixing/Well-Stirred
RoomAir Model,SPACE2-1,Mixing/Well-Stirred
RoomAir Model,SPACE3-1,Mixing/Well-Stirred
RoomAir Model,SPACE4-1,Mixing/Well-Stirred
RoomAir Model,SPACE5-1,Mixing/Well-Stirred
! <AirflowNetwork Model:Control>, No Multizone or Distribution/Multizone with Distribution/Multizone without Distribution/Multizone with Distribution only during Fan Operation
AirflowNetwork Model:Control,NoMultizoneOrDistribution
! <Zone Volume Capacitance Multiplier>, Sensible Heat Capacity Multiplier, Moisture Capacity Multiplier, Carbon Dioxide Capacity Multiplier, Generic Contaminant Capacity Multiplier
Zone Volume Capacitance Multiplier,   1.000 ,   1.000,   1.000,   1.000
! <Load Timesteps in Zone Design Calculation Averaging Window>, Value
 Load Timesteps in Zone Design Calculation Averaging Window,    4
! <Heating Sizing Factor Information>, Sizing Factor ID, Value
 Heating Sizing Factor Information, Global,   1.3000    
 Heating Sizing Factor Information, Zone SPACE1-1,   1.3000    
 Heating Sizing Factor Information, Zone SPACE2-1,   1.3000    
 Heating Sizing Factor Information, Zone SPACE3-1,   1.3000    
 Heating Sizing Factor Information, Zone SPACE4-1,   1.3000    
 Heating Sizing Factor Information, Zone SPACE5-1,   1.3000    
! <Cooling Sizing Factor Information>, Sizing Factor ID, Value
 Cooling Sizing Factor Information, Global,   1.3000    
 Cooling Sizing Factor Information, Zone SPACE1-1,   1.3000    
 Cooling Sizing Factor Information, Zone SPACE2-1,   1.3000    
 Cooling Sizing Factor Information, Zone SPACE3-1,   1.3000    
 Cooling Sizing Factor Information, Zone SPACE4-1,   1.3000    
 Cooling Sizing Factor Information, Zone SPACE5-1,   1.3000    
! <Zone Sizing Information>, Zone Name, Load Type, Calc Des Load {W}, User Des Load {W}, Calc Des Air Flow Rate {m3/s}, User Des Air Flow Rate {m3/s}, Design Day Name, Date/Time of Peak, Temperature at Peak {C}, Humidity Ratio at Peak {kgWater/kgDryAir}, Floor Area {m2}, # Occupants, Calc Outdoor Air Flow Rate {m3/s}, Calc DOAS Heat Addition Rate {W}
 Zone Sizing Information, SPACE1-1, Cooling, 2597.26494, 3376.44442, 0.22318, 0.29014, CHICAGO_IL_USA ANNUAL COOLING 1% DESIGN CONDITIONS DB/MCWB, 7/21 15:45:00, 31.01850, 1.45947E-002, 99.16000, 11.00000, 0.10384, 0.00000
 Zone Sizing Information, SPACE1-1, Heating, 3191.73532, 4149.25591, 9.47839E-002, 0.12322, CHICAGO_IL_USA ANNUAL HEATING 99% DESIGN CONDITIONS DB, 1/21 24:00:00, -17.30000, 8.38927E-004, 99.16000, 11.00000, 0.10384, 0.00000
 Zone Sizing Information, SPACE2-1, Cooling, 2260.04108, 2938.05340, 0.19419, 0.25245, CHICAGO_IL_USA ANNUAL COOLING 1% DESIGN CONDITIONS DB/MCWB, 7/21 10:30:00, 28.23650, 1.45947E-002, 42.73500, 5.00000, 4.72000E-002, 0.00000
 Zone Sizing Information, SPACE2-1, Heating, 1355.69964, 1762.40954, 4.02598E-002, 5.23377E-002, CHICAGO_IL_USA ANNUAL HEATING 99% DESIGN CONDITIONS DB, 1/21 24:00:00, -17.30000, 8.38927E-004, 42.73500, 5.00000, 4.72000E-002, 0.00000
 Zone Sizing Information, SPACE3-1, Cooling, 2546.16309, 3310.01201, 0.21879, 0.28443, CHICAGO_IL_USA ANNUAL COOLING 1% DESIGN CONDITIONS DB/MCWB, 7/21 10:00:00, 27.43400, 1.45947E-002, 96.48000, 11.00000, 0.10384, 0.00000
 Zone Sizing Information, SPACE3-1, Heating, 3157.49474, 4104.74317, 9.37670E-002, 0.12190, CHICAGO_IL_USA ANNUAL HEATING 99% DESIGN CONDITIONS DB, 1/21 24:00:00, -17.30000, 8.38927E-004, 96.48000, 11.00000, 0.10384, 0.00000
 Zone Sizing Information, SPACE4-1, Cooling, 2470.81126, 3212.05464, 0.21230, 0.27600, CHICAGO_IL_USA ANNUAL COOLING 1% DESIGN CONDITIONS DB/MCWB, 7/21 18:00:00, 28.93200, 1.45947E-002, 42.73500, 5.00000, 4.72000E-002, 0.00000
 Zone Sizing Information, SPACE4-1, Heating, 1355.69964, 1762.40954, 4.02598E-002, 5.23377E-002, CHICAGO_IL_USA ANNUAL HEATING 99% DESIGN CONDITIONS DB, 1/21 24:00:00, -17.30000, 8.38927E-004, 42.73500, 5.00000, 4.72000E-002, 0.00000
 Zone Sizing Information, SPACE5-1, Cooling, 2607.08184, 3389.20639, 0.22403, 0.29123, CHICAGO_IL_USA ANNUAL COOLING 1% DESIGN CONDITIONS DB/MCWB, 7/21 15:00:00, 31.50000, 1.45947E-002, 182.49000, 20.00000, 0.18880, 0.00000
 Zone Sizing Information, SPACE5-1, Heating, 1987.50117, 2583.75152, 5.90221E-002, 0.18880, CHICAGO_IL_USA ANNUAL HEATING 99% DESIGN CONDITIONS DB, 1/21 24:00:00, -17.30000, 8.38927E-004, 182.49000, 20.00000, 0.18880, 0.00000
! <System Sizing Information>, System Name, Field Description, Value
 System Sizing Information, VAV SYS 1, Calculated Cooling Design Air Flow Rate [m3/s], 1.39425
 System Sizing Information, VAV SYS 1, User Cooling Design Air Flow Rate [m3/s], 1.39425
 System Sizing Information, VAV SYS 1, Calculated Heating Design Air Flow Rate [m3/s], 0.53859
 System Sizing Information, VAV SYS 1, User Heating Design Air Flow Rate [m3/s], 0.53859
! <Component Sizing Information>, Component Type, Component Name, Input Field Description, Value
 Component Sizing Information, AirTerminal:SingleDuct:VAV:Reheat, SPACE1-1 VAV REHEAT, Design Size Maximum Air Flow Rate [m3/s], 0.29014
 Component Sizing Information, AirTerminal:SingleDuct:VAV:Reheat, SPACE1-1 VAV REHEAT, Design Size Constant Minimum Air Flow Fraction, 0.26043
 Component Sizing Information, AirTerminal:SingleDuct:VAV:Reheat, SPACE1-1 VAV REHEAT, Design Size Minimum Air Flow Rate [m3/s], 7.55599E-002
 Component Sizing Information, AirTerminal:SingleDuct:VAV:Reheat, SPACE1-1 VAV REHEAT, Design Size Maximum Flow Fraction during Reheat [], 0.69448
 Component Sizing Information, AirTerminal:SingleDuct:VAV:Reheat, SPACE1-1 VAV REHEAT, Design Size Maximum Flow per Zone Floor Area during Reheat [m3/s-m2], 2.03200E-003
 Component Sizing Information, AirTerminal:SingleDuct:VAV:Reheat, SPACE1-1 VAV REHEAT, Design Size Maximum Reheat Water Flow Rate [m3/s], 1.05624E-004
 Component Sizing Information, AirTerminal:SingleDuct:VAV:Reheat, SPACE1-1 VAV REHEAT, Design Size Reheat Coil Sizing Air Volume Flow Rate [m3/s], 0.12322
 Component Sizing Information, AirTerminal:SingleDuct:VAV:Reheat, SPACE1-1 VAV REHEAT, Design Size Reheat Coil Sizing Inlet Air Temperature [C], 16.70000
 Component Sizing Information, AirTerminal:SingleDuct:VAV:Reheat, SPACE1-1 VAV REHEAT, Design Size Reheat Coil Sizing Inlet Air Humidity Ratio [kgWater/kgDryAir], 8.00000E-003
! <Water Heating Coil Capacity Information>,Component Type,Name,Nominal Total Capacity {W}
Water Heating Coil Capacity Information,Coil:Heating:Water,SPACE1-1 ZONE COIL,9996.85
 Component Sizing Information, AirTerminal:SingleDuct:VAV:Reheat, SPACE2-1 VAV REHEAT, Design Size Maximum Air Flow Rate [m3/s], 0.25245
 Component Sizing Information, AirTerminal:SingleDuct:VAV:Reheat, SPACE2-1 VAV REHEAT, Design Size Constant Minimum Air Flow Fraction, 0.20000
 Component Sizing Information, AirTerminal:SingleDuct:VAV:Reheat, SPACE2-1 VAV REHEAT, Design Size Minimum Air Flow Rate [m3/s], 5.04907E-002
 Component Sizing Information, AirTerminal:SingleDuct:VAV:Reheat, SPACE2-1 VAV REHEAT, Design Size Maximum Flow Fraction during Reheat [], 0.56080
 Component Sizing Information, AirTerminal:SingleDuct:VAV:Reheat, SPACE2-1 VAV REHEAT, Design Size Maximum Flow per Zone Floor Area during Reheat [m3/s-m2], 3.31289E-003
 Component Sizing Information, AirTerminal:SingleDuct:VAV:Reheat, SPACE2-1 VAV REHEAT, Design Size Maximum Reheat Water Flow Rate [m3/s], 4.48641E-005
 Component Sizing Information, AirTerminal:SingleDuct:VAV:Reheat, SPACE2-1 VAV REHEAT, Design Size Reheat Coil Sizing Air Volume Flow Rate [m3/s], 5.23377E-002
 Component Sizing Information, AirTerminal:SingleDuct:VAV:Reheat, SPACE2-1 VAV REHEAT, Design Size Reheat Coil Sizing Inlet Air Temperature [C], 16.70000
 Component Sizing Information, AirTerminal:SingleDuct:VAV:Reheat, SPACE2-1 VAV REHEAT, Design Size Reheat Coil Sizing Inlet Air Humidity Ratio [kgWater/kgDryAir], 8.00000E-003
Water Heating Coil Capacity Information,Coil:Heating:Water,SPACE2-1 ZONE COIL,9996.85
 Component Sizing Information, AirTerminal:SingleDuct:VAV:Reheat, SPACE3-1 VAV REHEAT, Design Size Maximum Air Flow Rate [m3/s], 0.28443
 Component Sizing Information, AirTerminal:SingleDuct:VAV:Reheat, SPACE3-1 VAV REHEAT, Design Size Constant Minimum Air Flow Fraction, 0.25847
 Component Sizing Information, AirTerminal:SingleDuct:VAV:Reheat, SPACE3-1 VAV REHEAT, Design Size Minimum Air Flow Rate [m3/s], 7.35178E-002
 Component Sizing Information, AirTerminal:SingleDuct:VAV:Reheat, SPACE3-1 VAV REHEAT, Design Size Maximum Flow Fraction during Reheat [], 0.68926
 Component Sizing Information, AirTerminal:SingleDuct:VAV:Reheat, SPACE3-1 VAV REHEAT, Design Size Maximum Flow per Zone Floor Area during Reheat [m3/s-m2], 2.03200E-003
 Component Sizing Information, AirTerminal:SingleDuct:VAV:Reheat, SPACE3-1 VAV REHEAT, Design Size Maximum Reheat Water Flow Rate [m3/s], 1.04491E-004
 Component Sizing Information, AirTerminal:SingleDuct:VAV:Reheat, SPACE3-1 VAV REHEAT, Design Size Reheat Coil Sizing Air Volume Flow Rate [m3/s], 0.12190
 Component Sizing Information, AirTerminal:SingleDuct:VAV:Reheat, SPACE3-1 VAV REHEAT, Design Size Reheat Coil Sizing Inlet Air Temperature [C], 16.70000
 Component Sizing Information, AirTerminal:SingleDuct:VAV:Reheat, SPACE3-1 VAV REHEAT, Design Size Reheat Coil Sizing Inlet Air Humidity Ratio [kgWater/kgDryAir], 8.00000E-003
Water Heating Coil Capacity Information,Coil:Heating:Water,SPACE3-1 ZONE COIL,9996.85
 Component Sizing Information, AirTerminal:SingleDuct:VAV:Reheat, SPACE4-1 VAV REHEAT, Design Size Maximum Air Flow Rate [m3/s], 0.27600
 Component Sizing Information, AirTerminal:SingleDuct:VAV:Reheat, SPACE4-1 VAV REHEAT, Design Size Constant Minimum Air Flow Fraction, 0.20000
 Component Sizing Information, AirTerminal:SingleDuct:VAV:Reheat, SPACE4-1 VAV REHEAT, Design Size Minimum Air Flow Rate [m3/s], 5.51993E-002
 Component Sizing Information, AirTerminal:SingleDuct:VAV:Reheat, SPACE4-1 VAV REHEAT, Design Size Maximum Flow Fraction during Reheat [], 0.51296
 Component Sizing Information, AirTerminal:SingleDuct:VAV:Reheat, SPACE4-1 VAV REHEAT, Design Size Maximum Flow per Zone Floor Area during Reheat [m3/s-m2], 3.31289E-003
 Component Sizing Information, AirTerminal:SingleDuct:VAV:Reheat, SPACE4-1 VAV REHEAT, Design Size Maximum Reheat Water Flow Rate [m3/s], 4.51881E-005
 Component Sizing Information, AirTerminal:SingleDuct:VAV:Reheat, SPACE4-1 VAV REHEAT, Design Size Reheat Coil Sizing Air Volume Flow Rate [m3/s], 5.51993E-002
 Component Sizing Information, AirTerminal:SingleDuct:VAV:Reheat, SPACE4-1 VAV REHEAT, Design Size Reheat Coil Sizing Inlet Air Temperature [C], 16.70000
 Component Sizing Information, AirTerminal:SingleDuct:VAV:Reheat, SPACE4-1 VAV REHEAT, Design Size Reheat Coil Sizing Inlet Air Humidity Ratio [kgWater/kgDryAir], 8.00000E-003
Water Heating Coil Capacity Information,Coil:Heating:Water,SPACE4-1 ZONE COIL,9996.85
 Component Sizing Information, AirTerminal:SingleDuct:VAV:Reheat, SPACE5-1 VAV REHEAT, Design Size Maximum Air Flow Rate [m3/s], 0.29123
 Component Sizing Information, AirTerminal:SingleDuct:VAV:Reheat, SPACE5-1 VAV REHEAT, Design Size Constant Minimum Air Flow Fraction, 0.47748
 Component Sizing Information, AirTerminal:SingleDuct:VAV:Reheat, SPACE5-1 VAV REHEAT, Design Size Minimum Air Flow Rate [m3/s], 0.13906
 Component Sizing Information, AirTerminal:SingleDuct:VAV:Reheat, SPACE5-1 VAV REHEAT, Design Size Maximum Flow Fraction during Reheat [], 1.00000
 Component Sizing Information, AirTerminal:SingleDuct:VAV:Reheat, SPACE5-1 VAV REHEAT, Design Size Maximum Flow per Zone Floor Area during Reheat [m3/s-m2], 1.59589E-003
 Component Sizing Information, AirTerminal:SingleDuct:VAV:Reheat, SPACE5-1 VAV REHEAT, Design Size Maximum Reheat Water Flow Rate [m3/s], 7.28215E-005
 Component Sizing Information, AirTerminal:SingleDuct:VAV:Reheat, SPACE5-1 VAV REHEAT, Design Size Reheat Coil Sizing Air Volume Flow Rate [m3/s], 0.13906
 Component Sizing Information, AirTerminal:SingleDuct:VAV:Reheat, SPACE5-1 VAV REHEAT, Design Size Reheat Coil Sizing Inlet Air Temperature [C], 16.70000
 Component Sizing Information, AirTerminal:SingleDuct:VAV:Reheat, SPACE5-1 VAV REHEAT, Design Size Reheat Coil Sizing Inlet Air Humidity Ratio [kgWater/kgDryAir], 8.00000E-003
Water Heating Coil Capacity Information,Coil:Heating:Water,SPACE5-1 ZONE COIL,9996.85
 Component Sizing Information, AirLoopHVAC, VAV SYS 1, Design Supply Air Flow Rate [m3/s], 1.39425
 Component Sizing Information, Controller:OutdoorAir, OA CONTROLLER 1, Maximum Outdoor Air Flow Rate [m3/s], 1.39425
 Component Sizing Information, Controller:OutdoorAir, OA CONTROLLER 1, Minimum Outdoor Air Flow Rate [m3/s], 0.49088
 Component Sizing Information, Coil:Cooling:Water, MAIN COOLING COIL 1, Design Size Design Coil Load [W], 32360.58033
 Component Sizing Information, Coil:Cooling:Water, MAIN COOLING COIL 1, Design Size Design Water Flow Rate [m3/s], 1.15583E-003
 Component Sizing Information, Coil:Cooling:Water, MAIN COOLING COIL 1, Design Size Design Air Flow Rate [m3/s], 1.18697
 Component Sizing Information, Coil:Cooling:Water, MAIN COOLING COIL 1, Design Size Design Inlet Air Temperature [C], 26.61915
 Component Sizing Information, Coil:Cooling:Water, MAIN COOLING COIL 1, Design Size Design Inlet Water Temperature [C], 7.22000
 Component Sizing Information, Coil:Cooling:Water, MAIN COOLING COIL 1, Design Size Design Outlet Air Temperature [C], 12.80000
 Component Sizing Information, Coil:Cooling:Water, MAIN COOLING COIL 1, Design Size Design Inlet Air Humidity Ratio, 1.14699E-002
 Component Sizing Information, Coil:Cooling:Water, MAIN COOLING COIL 1, Design Size Design Outlet Air Humidity Ratio, 8.66425E-003
! <Water Cooling Coil Capacity Information>,Component Type,Name,Nominal Total Capacity {W},Nominal Sensible Capacity {W},Nominal Latent Capacity {W},Nominal Sensible Heat Ratio, Nominal Coil UA Value {W/C}, Nominal Coil Surface Area {m2}
Water Cooling Coil Capacity Information,Coil:Cooling:Water,MAIN COOLING COIL 1,32109.08,20897.73,11211.35,0.65,3548.75,35.99
 Component Sizing Information, Coil:Heating:Water, MAIN HEATING COIL 1, Design Size Design Coil Load [W], 16448.77630
 Component Sizing Information, Coil:Heating:Water, MAIN HEATING COIL 1, Design Size Maximum Water Flow Rate [m3/s], 3.57347E-004
 Component Sizing Information, Coil:Heating:Water, MAIN HEATING COIL 1, Design Size U-Factor Times Area Value [W/K], 220.96844
Water Heating Coil Capacity Information,Coil:Heating:Water,MAIN HEATING COIL 1,10885.90
 Component Sizing Information, Fan:VariableVolume, SUPPLY FAN 1, Design Size Maximum Flow Rate [m3/s], 1.39425
 Component Sizing Information, Controller:WaterCoil, CENTRAL COOLING COIL CONTOLLER 1, Maximum Actuated Flow [m3/s], 1.15583E-003
 Component Sizing Information, Controller:WaterCoil, CENTRAL HEATING COIL CONTOLLER 1, Maximum Actuated Flow [m3/s], 3.57347E-004
 Component Sizing Information, PlantLoop, HOT WATER LOOP, Maximum Loop Flow Rate [m3/s], 1.43380E-003
 Component Sizing Information, PlantLoop, HOT WATER LOOP, Plant Loop Volume [m3], 1.61303
 Component Sizing Information, Pump:VariableSpeed, HW CIRC PUMP, Design Flow Rate [m3/s], 1.43380E-003
 Component Sizing Information, Pump:VariableSpeed, HW CIRC PUMP, Design Power Consumption [W], 366.31794
 Component Sizing Information, Boiler:HotWater, CENTRAL BOILER, Design Size Nominal Capacity [W], 66244.34111
 Component Sizing Information, Boiler:HotWater, CENTRAL BOILER, Design Size Design Water Flow Rate [m3/s], 1.43380E-003
 Component Sizing Information, PlantLoop, CHILLED WATER LOOP, Maximum Loop Flow Rate [m3/s], 1.15583E-003
 Component Sizing Information, PlantLoop, CHILLED WATER LOOP, Plant Loop Volume [m3], 1.30030
 Component Sizing Information, Pump:VariableSpeed, CW CIRC PUMP, Design Flow Rate [m3/s], 1.15583E-003
 Component Sizing Information, Pump:VariableSpeed, CW CIRC PUMP, Design Power Consumption [W], 295.29864
 Component Sizing Information, Chiller:Electric, CENTRAL CHILLER, Design Size Nominal Capacity [W], 32360.04073
 Component Sizing Information, Chiller:Electric, CENTRAL CHILLER, Design Size Design Chilled Water Flow Rate [m3/s], 1.15583E-003
 Component Sizing Information, Chiller:Electric, CENTRAL CHILLER, Design Size Design Condenser Water Flow Rate [m3/s], 1.82223E-003
 Component Sizing Information, CondenserLoop, CONDENSER WATER LOOP, Maximum Loop Flow Rate [m3/s], 1.82223E-003
 Component Sizing Information, CondenserLoop, CONDENSER WATER LOOP, Condenser Loop Volume [m3], 2.05001
 Component Sizing Information, Pump:VariableSpeed, COND CIRC PUMP, Design Flow Rate [m3/s], 1.82223E-003
 Component Sizing Information, Pump:VariableSpeed, COND CIRC PUMP, Design Power Consumption [W], 465.55557
 Component Sizing Information, CoolingTower:SingleSpeed, CENTRAL TOWER, Design Water Flow Rate [m3/s], 1.82223E-003
 Component Sizing Information, CoolingTower:SingleSpeed, CENTRAL TOWER, Fan Power at Design Air Flow Rate [W], 447.81564
 Component Sizing Information, CoolingTower:SingleSpeed, CENTRAL TOWER, Design Air Flow Rate [m3/s], 1.23301
 Component Sizing Information, CoolingTower:SingleSpeed, CENTRAL TOWER, U-Factor Times Area Value at Design Air Flow Rate [W/C], 2498.32860
! <Environment>,Environment Name,Environment Type, Start Date, End Date, Start DayOfWeek, Duration {#days}, Source:Start DayOfWeek,  Use Daylight Saving, Use Holidays, Apply Weekend Holiday Rule,  Use Rain Values, Use Snow Values
! <Environment:Special Days>, Special Day Name, Special Day Type, Source, Start Date, Duration {#days}
! <Environment:Daylight Saving>, Daylight Saving Indicator, Source, Start Date, End Date
! <Environment:WarmupDays>, NumberofWarmupDays
Environment,Pittsburgh Allegheny Co Ap PA USA TMY3 WMO#=725205,WeatherFileRunPeriod,01/14,01/14,Tuesday,1,Use RunPeriod Specified Day,Yes,Yes,No,Yes,Yes
Environment:Daylight Saving,No,
Environment:WarmupDays,  6
! <Warmup Convergence Information>,Zone Name,Environment Type/Name,Average Warmup Temperature Difference {deltaC},Std Dev Warmup Temperature Difference {deltaC},Max Temperature Pass/Fail Convergence,Min Temperature Pass/Fail Convergence,Average Warmup Load Difference {W},Std Dev Warmup Load Difference {W},Heating Load Pass/Fail Convergence,Cooling Load Pass/Fail Convergence
 Warmup Convergence Information,PLENUM-1,RunPeriod: Pittsburgh Allegheny Co Ap PA USA TMY3 WMO#=725205,0.1288126190,8.6930585754E-002,Pass,Pass,0.3027563669,1.0454673033,Pass,Pass
 Warmup Convergence Information,SPACE1-1,RunPeriod: Pittsburgh Allegheny Co Ap PA USA TMY3 WMO#=725205,0.1119222517,0.2468314753,Pass,Pass,0.1456517448,0.4551306693,Pass,Pass
 Warmup Convergence Information,SPACE2-1,RunPeriod: Pittsburgh Allegheny Co Ap PA USA TMY3 WMO#=725205,0.1143540000,0.2699792301,Pass,Pass,0.1578651165,0.5453875443,Pass,Pass
 Warmup Convergence Information,SPACE3-1,RunPeriod: Pittsburgh Allegheny Co Ap PA USA TMY3 WMO#=725205,0.1124211702,0.2509415134,Pass,Pass,0.1376114150,0.4129307458,Pass,Pass
 Warmup Convergence Information,SPACE4-1,RunPeriod: Pittsburgh Allegheny Co Ap PA USA TMY3 WMO#=725205,0.1164093679,0.2707043275,Pass,Pass,0.1653930645,0.5895048567,Pass,Pass
 Warmup Convergence Information,SPACE5-1,RunPeriod: Pittsburgh Allegheny Co Ap PA USA TMY3 WMO#=725205,0.1042193139,0.2006783533,Pass,Pass,0.1020076711,0.2993413224,Pass,Pass
Environment,Pittsburgh Allegheny Co Ap PA USA TMY3 WMO#=725205,WeatherFileRunPeriod,07/07,07/07,Tuesday,1,Use RunPeriod Specified Day,Yes,Yes,No,Yes,Yes
Environment:Daylight Saving,No,
Environment:WarmupDays,  6
 Warmup Convergence Information,PLENUM-1,RunPeriod: Pittsburgh Allegheny Co Ap PA USA TMY3 WMO#=725205,0.1082662717,9.3654237468E-002,Pass,Pass,0.2662788137,1.9770994080,Pass,Pass
 Warmup Convergence Information,SPACE1-1,RunPeriod: Pittsburgh Allegheny Co Ap PA USA TMY3 WMO#=725205,0.1246042931,0.2256167749,Pass,Pass,0.1479440470,0.5931023983,Pass,Pass
 Warmup Convergence Information,SPACE2-1,RunPeriod: Pittsburgh Allegheny Co Ap PA USA TMY3 WMO#=725205,0.1177147673,0.2138626356,Pass,Pass,0.1565676870,0.6381083575,Pass,Pass
 Warmup Convergence Information,SPACE3-1,RunPeriod: Pittsburgh Allegheny Co Ap PA USA TMY3 WMO#=725205,0.1203075697,0.2201292876,Pass,Pass,0.1497101229,0.6080862736,Pass,Pass
 Warmup Convergence Information,SPACE4-1,RunPeriod: Pittsburgh Allegheny Co Ap PA USA TMY3 WMO#=725205,0.1846534942,0.3523188895,Pass,Pass,0.1884466193,0.8848192581,Pass,Pass
 Warmup Convergence Information,SPACE5-1,RunPeriod: Pittsburgh Allegheny Co Ap PA USA TMY3 WMO#=725205,0.1148129854,0.1995682467,Pass,Pass,0.1461516789,0.4998741131,Pass,Pass
! <Program Control Information:Threads/Parallel Sims>, Threading Supported,Maximum Number of Threads, Env Set Threads (OMP_NUM_THREADS), EP Env Set Threads (EP_OMP_NUM_THREADS), IDF Set Threads, Number of Threads Used (Interior Radiant Exchange), Number Nominal Surfaces, Number Parallel Sims
Program Control:Threads/Parallel Sims, No,1, N/A, N/A, N/A, N/A, N/A, N/A
End of Data
