Program Version,EnergyPlus, Version 8.6.0-198c6a3cff, YMD=2017.05.29 12:36,IDD_Version 8.6.0
   ************* IDF Context for following error/warning message:
   ************* Note -- lines truncated at 300 characters, if necessary...
   *************    569 Schedule:File,
   ************* indicated Name=S1_Office_-_Private People Schedule
   ************* Only last 3 lines before error line shown.....
   *************    570 S1_Office_-_Private People Schedule,   !- Name
   *************    571 Fraction,          !- Schedule Type Limits Name
   *************    572 /home/zhiangz/Documents/HVAC-RL-Control/src/core/eplus-env/eplus_env/envs/idf/schedules/stochastic_occup_v1.csv, !- File Name-eval_env
   ** Warning ** IP: IDF line~572 Alpha Argument length exceeds maximum, will be truncated=/home/zhiangz/Documents/HVAC-RL-Control/src/core/eplus-env/eplus_env/envs/idf/schedules/stochastic_occup_v1.cs
   **   ~~~   ** Will be processed as Alpha=/HOME/ZHIANGZ/DOCUMENTS/HVAC-RL-CONTROL/SRC/CORE/EPLUS-ENV/EPLUS_ENV/ENVS/IDF/SCHEDULES/STOCHASTIC_OCCUP_V1.CSV
   ************* IDF Context for following error/warning message:
   ************* Note -- lines truncated at 300 characters, if necessary...
   *************    580 Schedule:File,
   ************* indicated Name=S2_Office_-_Private People Schedule
   ************* Only last 3 lines before error line shown.....
   *************    581 S2_Office_-_Private People Schedule,   !- Name
   *************    582 Fraction,          !- Schedule Type Limits Name
   *************    583 /home/zhiangz/Documents/HVAC-RL-Control/src/core/eplus-env/eplus_env/envs/idf/schedules/stochastic_occup_v1.csv, !- File Name-eval_env
   ** Warning ** IP: IDF line~583 Alpha Argument length exceeds maximum, will be truncated=/home/zhiangz/Documents/HVAC-RL-Control/src/core/eplus-env/eplus_env/envs/idf/schedules/stochastic_occup_v1.cs
   **   ~~~   ** Will be processed as Alpha=/HOME/ZHIANGZ/DOCUMENTS/HVAC-RL-CONTROL/SRC/CORE/EPLUS-ENV/EPLUS_ENV/ENVS/IDF/SCHEDULES/STOCHASTIC_OCCUP_V1.CSV
   ************* IDF Context for following error/warning message:
   ************* Note -- lines truncated at 300 characters, if necessary...
   *************    591 Schedule:File,
   ************* indicated Name=S3_Office_-_Private People Schedule
   ************* Only last 3 lines before error line shown.....
   *************    592 S3_Office_-_Private People Schedule,   !- Name
   *************    593 Fraction,          !- Schedule Type Limits Name
   *************    594 /home/zhiangz/Documents/HVAC-RL-Control/src/core/eplus-env/eplus_env/envs/idf/schedules/stochastic_occup_v1.csv, !- File Name-eval_env
   ** Warning ** IP: IDF line~594 Alpha Argument length exceeds maximum, will be truncated=/home/zhiangz/Documents/HVAC-RL-Control/src/core/eplus-env/eplus_env/envs/idf/schedules/stochastic_occup_v1.cs
   **   ~~~   ** Will be processed as Alpha=/HOME/ZHIANGZ/DOCUMENTS/HVAC-RL-CONTROL/SRC/CORE/EPLUS-ENV/EPLUS_ENV/ENVS/IDF/SCHEDULES/STOCHASTIC_OCCUP_V1.CSV
   ************* IDF Context for following error/warning message:
   ************* Note -- lines truncated at 300 characters, if necessary...
   *************    602 Schedule:File,
   ************* indicated Name=S4_Office_-_Private People Schedule
   ************* Only last 3 lines before error line shown.....
   *************    603 S4_Office_-_Private People Schedule,   !- Name
   *************    604 Fraction,          !- Schedule Type Limits Name
   *************    605 /home/zhiangz/Documents/HVAC-RL-Control/src/core/eplus-env/eplus_env/envs/idf/schedules/stochastic_occup_v1.csv, !- File Name-eval_env
   ** Warning ** IP: IDF line~605 Alpha Argument length exceeds maximum, will be truncated=/home/zhiangz/Documents/HVAC-RL-Control/src/core/eplus-env/eplus_env/envs/idf/schedules/stochastic_occup_v1.cs
   **   ~~~   ** Will be processed as Alpha=/HOME/ZHIANGZ/DOCUMENTS/HVAC-RL-CONTROL/SRC/CORE/EPLUS-ENV/EPLUS_ENV/ENVS/IDF/SCHEDULES/STOCHASTIC_OCCUP_V1.CSV
   ************* IDF Context for following error/warning message:
   ************* Note -- lines truncated at 300 characters, if necessary...
   *************    613 Schedule:File,
   ************* indicated Name=S5_Office_-_Private People Schedule
   ************* Only last 3 lines before error line shown.....
   *************    614 S5_Office_-_Private People Schedule,   !- Name
   *************    615 Fraction,          !- Schedule Type Limits Name
   *************    616 /home/zhiangz/Documents/HVAC-RL-Control/src/core/eplus-env/eplus_env/envs/idf/schedules/stochastic_occup_v1.csv, !- File Name-eval_env
   ** Warning ** IP: IDF line~616 Alpha Argument length exceeds maximum, will be truncated=/home/zhiangz/Documents/HVAC-RL-Control/src/core/eplus-env/eplus_env/envs/idf/schedules/stochastic_occup_v1.cs
   **   ~~~   ** Will be processed as Alpha=/HOME/ZHIANGZ/DOCUMENTS/HVAC-RL-CONTROL/SRC/CORE/EPLUS-ENV/EPLUS_ENV/ENVS/IDF/SCHEDULES/STOCHASTIC_OCCUP_V1.CSV
   ************* IDF Context for following error/warning message:
   ************* Note -- lines truncated at 300 characters, if necessary...
   *************    624 Schedule:File,
   ************* indicated Name=S1_Office_-_Private Equip Schedule
   ************* Only last 3 lines before error line shown.....
   *************    625 S1_Office_-_Private Equip Schedule,   !- Name
   *************    626 Fraction,          !- Schedule Type Limits Name
   *************    627 /home/zhiangz/Documents/HVAC-RL-Control/src/core/eplus-env/eplus_env/envs/idf/schedules/stochastic_equip_v1.csv, !- File Name-eval_env
   ** Warning ** IP: IDF line~627 Alpha Argument length exceeds maximum, will be truncated=/home/zhiangz/Documents/HVAC-RL-Control/src/core/eplus-env/eplus_env/envs/idf/schedules/stochastic_equip_v1.cs
   **   ~~~   ** Will be processed as Alpha=/HOME/ZHIANGZ/DOCUMENTS/HVAC-RL-CONTROL/SRC/CORE/EPLUS-ENV/EPLUS_ENV/ENVS/IDF/SCHEDULES/STOCHASTIC_EQUIP_V1.CSV
   ************* IDF Context for following error/warning message:
   ************* Note -- lines truncated at 300 characters, if necessary...
   *************    635 Schedule:File,
   ************* indicated Name=S2_Office_-_Private Equip Schedule
   ************* Only last 3 lines before error line shown.....
   *************    636 S2_Office_-_Private Equip Schedule,   !- Name
   *************    637 Fraction,          !- Schedule Type Limits Name
   *************    638 /home/zhiangz/Documents/HVAC-RL-Control/src/core/eplus-env/eplus_env/envs/idf/schedules/stochastic_equip_v1.csv, !- File Name-eval_env
   ** Warning ** IP: IDF line~638 Alpha Argument length exceeds maximum, will be truncated=/home/zhiangz/Documents/HVAC-RL-Control/src/core/eplus-env/eplus_env/envs/idf/schedules/stochastic_equip_v1.cs
   **   ~~~   ** Will be processed as Alpha=/HOME/ZHIANGZ/DOCUMENTS/HVAC-RL-CONTROL/SRC/CORE/EPLUS-ENV/EPLUS_ENV/ENVS/IDF/SCHEDULES/STOCHASTIC_EQUIP_V1.CSV
   ************* IDF Context for following error/warning message:
   ************* Note -- lines truncated at 300 characters, if necessary...
   *************    646 Schedule:File,
   ************* indicated Name=S3_Office_-_Private Equip Schedule
   ************* Only last 3 lines before error line shown.....
   *************    647 S3_Office_-_Private Equip Schedule,   !- Name
   *************    648 Fraction,          !- Schedule Type Limits Name
   *************    649 /home/zhiangz/Documents/HVAC-RL-Control/src/core/eplus-env/eplus_env/envs/idf/schedules/stochastic_equip_v1.csv, !- File Name-eval_env
   ** Warning ** IP: IDF line~649 Alpha Argument length exceeds maximum, will be truncated=/home/zhiangz/Documents/HVAC-RL-Control/src/core/eplus-env/eplus_env/envs/idf/schedules/stochastic_equip_v1.cs
   **   ~~~   ** Will be processed as Alpha=/HOME/ZHIANGZ/DOCUMENTS/HVAC-RL-CONTROL/SRC/CORE/EPLUS-ENV/EPLUS_ENV/ENVS/IDF/SCHEDULES/STOCHASTIC_EQUIP_V1.CSV
   ************* IDF Context for following error/warning message:
   ************* Note -- lines truncated at 300 characters, if necessary...
   *************    657 Schedule:File,
   ************* indicated Name=S4_Office_-_Private Equip Schedule
   ************* Only last 3 lines before error line shown.....
   *************    658 S4_Office_-_Private Equip Schedule,   !- Name
   *************    659 Fraction,          !- Schedule Type Limits Name
   *************    660 /home/zhiangz/Documents/HVAC-RL-Control/src/core/eplus-env/eplus_env/envs/idf/schedules/stochastic_equip_v1.csv, !- File Name-eval_env
   ** Warning ** IP: IDF line~660 Alpha Argument length exceeds maximum, will be truncated=/home/zhiangz/Documents/HVAC-RL-Control/src/core/eplus-env/eplus_env/envs/idf/schedules/stochastic_equip_v1.cs
   **   ~~~   ** Will be processed as Alpha=/HOME/ZHIANGZ/DOCUMENTS/HVAC-RL-CONTROL/SRC/CORE/EPLUS-ENV/EPLUS_ENV/ENVS/IDF/SCHEDULES/STOCHASTIC_EQUIP_V1.CSV
   ************* IDF Context for following error/warning message:
   ************* Note -- lines truncated at 300 characters, if necessary...
   *************    668 Schedule:File,
   ************* indicated Name=S5_Office_-_Private Equip Schedule
   ************* Only last 3 lines before error line shown.....
   *************    669 S5_Office_-_Private Equip Schedule,   !- Name
   *************    670 Fraction,          !- Schedule Type Limits Name
   *************    671 /home/zhiangz/Documents/HVAC-RL-Control/src/core/eplus-env/eplus_env/envs/idf/schedules/stochastic_equip_v1.csv, !- File Name-eval_env
   ** Warning ** IP: IDF line~671 Alpha Argument length exceeds maximum, will be truncated=/home/zhiangz/Documents/HVAC-RL-Control/src/core/eplus-env/eplus_env/envs/idf/schedules/stochastic_equip_v1.cs
   **   ~~~   ** Will be processed as Alpha=/HOME/ZHIANGZ/DOCUMENTS/HVAC-RL-CONTROL/SRC/CORE/EPLUS-ENV/EPLUS_ENV/ENVS/IDF/SCHEDULES/STOCHASTIC_EQUIP_V1.CSV
